REMARK Flexibility Score: inf
REMARK Active torsions [ 2 ] -> [ 2 ]
ROOT
ATOM      1  C1  LIG L   1     -19.097  17.872 128.953  1.00  0.00     0.200 C 
ATOM      2  N1  LIG L   1     -20.025  19.036 128.928  1.00  0.00    -0.321 N 
ATOM      3  C2  LIG L   1     -20.945  19.131 127.899  1.00  0.00     0.041 A 
ATOM      4  C3  LIG L   1     -22.041  19.951 128.048  1.00  0.00     0.024 A 
ATOM      5  C4  LIG L   1     -22.985  20.074 127.024  1.00  0.00     0.002 A 
ATOM      6  C5  LIG L   1     -22.777  19.369 125.863  1.00  0.00     0.001 A 
ATOM      7  C6  LIG L   1     -21.659  18.529 125.705  1.00  0.00     0.015 A 
ATOM      8  C7  LIG L   1     -20.758  18.379 126.740  1.00  0.00     0.058 A 
ATOM      9  C8  LIG L   1     -19.579  17.649 126.567  1.00  0.00     0.254 C 
ATOM     10  O1  LIG L   1     -19.175  17.344 125.429  1.00  0.00    -0.270 OA
ATOM     11  N2  LIG L   1     -18.713  17.495 127.578  1.00  0.00    -0.244 N 
ATOM     12  H1  LIG L   1     -19.985  19.725 129.630  1.00  0.00     0.148 HD
ENDROOT
BRANCH    1   13
ATOM     13  C9  LIG L   1     -19.691  16.745 129.568  1.00  0.00     0.026 A 
ATOM     14  F1  LIG L   1     -19.277  17.726 131.586  1.00  0.00    -0.205 F 
ATOM     15 C10  LIG L   1     -19.752  16.729 130.955  1.00  0.00     0.130 A 
ATOM     16 C11  LIG L   1     -20.305  15.662 131.653  1.00  0.00     0.039 A 
ATOM     17 C12  LIG L   1     -20.188  15.611 128.891  1.00  0.00     0.010 A 
ATOM     18 C13  LIG L   1     -20.805  14.551 130.997  1.00  0.00     0.003 A 
ATOM     19 C14  LIG L   1     -20.772  14.540 129.603  1.00  0.00     0.001 A 
ENDBRANCH    1   13
BRANCH   11   20
ATOM     20 C15  LIG L   1     -17.467  17.059 127.333  1.00  0.00     0.039 A 
ATOM     21 C16  LIG L   1     -16.514  18.057 127.055  1.00  0.00     0.023 A 
ATOM     22 C17  LIG L   1     -17.073  15.733 127.305  1.00  0.00     0.023 A 
ATOM     23 C18  LIG L   1     -15.185  17.761 126.816  1.00  0.00     0.002 A 
ATOM     24 C19  LIG L   1     -15.720  15.425 127.030  1.00  0.00     0.002 A 
ATOM     25 C20  LIG L   1     -14.785  16.441 126.795  1.00  0.00     0.000 A 
ENDBRANCH   11   20
TORSDOF 2
