REMARK Flexibility Score: inf
REMARK Active torsions [ 2 ] -> [ 2 ]
ROOT
ATOM      1  C1  LIG L   1     -11.690  15.431 130.142  1.00  0.00     0.200 C 
ATOM      2  N1  LIG L   1     -13.114  15.953 129.994  1.00  0.00    -0.321 N 
ATOM      3  C2  LIG L   1     -14.114  15.157 130.569  1.00  0.00     0.041 A 
ATOM      4  C3  LIG L   1     -15.367  15.086 130.009  1.00  0.00     0.024 A 
ATOM      5  C4  LIG L   1     -16.354  14.267 130.559  1.00  0.00     0.002 A 
ATOM      6  C5  LIG L   1     -16.043  13.520 131.662  1.00  0.00     0.001 A 
ATOM      7  C6  LIG L   1     -14.765  13.577 132.210  1.00  0.00     0.015 A 
ATOM      8  C7  LIG L   1     -13.770  14.348 131.634  1.00  0.00     0.058 A 
ATOM      9  C8  LIG L   1     -12.541  14.567 132.225  1.00  0.00     0.254 C 
ATOM     10  O1  LIG L   1     -12.478  14.541 133.443  1.00  0.00    -0.270 OA
ATOM     11  N2  LIG L   1     -11.542  15.232 131.610  1.00  0.00    -0.244 N 
ATOM     12  H1  LIG L   1     -13.318  16.794 129.525  1.00  0.00     0.148 HD
ENDROOT
BRANCH    1   13
ATOM     13  C9  LIG L   1     -11.336  14.195 129.474  1.00  0.00     0.026 A 
ATOM     14  F1  LIG L   1     -11.545  15.278 127.337  1.00  0.00    -0.205 F 
ATOM     15 C10  LIG L   1     -11.259  14.157 128.075  1.00  0.00     0.130 A 
ATOM     16 C11  LIG L   1     -10.884  12.997 127.399  1.00  0.00     0.039 A 
ATOM     17 C12  LIG L   1     -10.570  11.852 128.109  1.00  0.00     0.003 A 
ATOM     18 C13  LIG L   1     -11.007  13.015 130.170  1.00  0.00     0.010 A 
ATOM     19 C14  LIG L   1     -10.650  11.860 129.498  1.00  0.00     0.001 A 
ENDBRANCH    1   13
BRANCH   11   20
ATOM     20 C15  LIG L   1     -10.472  15.747 132.249  1.00  0.00     0.039 A 
ATOM     21 C16  LIG L   1      -9.228  15.824 131.627  1.00  0.00     0.023 A 
ATOM     22 C17  LIG L   1     -10.625  16.335 133.514  1.00  0.00     0.023 A 
ATOM     23 C18  LIG L   1      -8.159  16.443 132.293  1.00  0.00     0.002 A 
ATOM     24 C19  LIG L   1      -9.564  16.927 134.197  1.00  0.00     0.002 A 
ATOM     25 C20  LIG L   1      -8.314  16.976 133.591  1.00  0.00     0.000 A 
ENDBRANCH   11   20
TORSDOF 2
