MODEL 1
REMARK VINA RESULT:   -21.317      0.000      0.000
REMARK ITER + INTRA:          -25.785
REMARK INTER:                 -26.011
REMARK INTRA:                   0.225
REMARK UNBOUND:                 0.517
REMARK Flexibility Score: inf
REMARK Active torsions [ 2 ] -> [ 2 ]
ROOT
ATOM      1  C1  LIG L   1     -19.047  17.945 129.319  1.00  0.00     0.200 C 
ATOM      2  N1  LIG L   1     -19.903  19.162 129.371  1.00  0.00    -0.321 N 
ATOM      3  C2  LIG L   1     -20.873  19.335 128.400  1.00  0.00     0.041 A 
ATOM      4  C3  LIG L   1     -21.907  20.214 128.629  1.00  0.00     0.024 A 
ATOM      5  C4  LIG L   1     -22.899  20.416 127.664  1.00  0.00     0.002 A 
ATOM      6  C5  LIG L   1     -22.801  19.727 126.479  1.00  0.00     0.001 A 
ATOM      7  C6  LIG L   1     -21.746  18.827 126.240  1.00  0.00     0.015 A 
ATOM      8  C7  LIG L   1     -20.798  18.600 127.217  1.00  0.00     0.058 A 
ATOM      9  C8  LIG L   1     -19.677  17.806 126.961  1.00  0.00     0.254 C 
ATOM     10  O1  LIG L   1     -19.358  17.504 125.796  1.00  0.00    -0.270 OA
ATOM     11  N2  LIG L   1     -18.766  17.578 127.917  1.00  0.00    -0.244 N 
ATOM     12  H1  LIG L   1     -19.782  19.831 130.083  1.00  0.00     0.148 HD
ENDROOT
BRANCH    1   13
ATOM     13  C9  LIG L   1     -19.672  16.841 129.946  1.00  0.00     0.026 A 
ATOM     14  F1  LIG L   1     -19.016  17.708 131.952  1.00  0.00    -0.205 F 
ATOM     15 C10  LIG L   1     -19.617  16.774 131.331  1.00  0.00     0.130 A 
ATOM     16 C11  LIG L   1     -20.189  15.724 132.039  1.00  0.00     0.039 A 
ATOM     17 C12  LIG L   1     -20.309  15.774 129.277  1.00  0.00     0.010 A 
ATOM     18 C13  LIG L   1     -20.826  14.680 131.392  1.00  0.00     0.003 A 
ATOM     19 C14  LIG L   1     -20.912  14.722 130.001  1.00  0.00     0.001 A 
ENDBRANCH    1   13
BRANCH   11   20
ATOM     20 C15  LIG L   1     -17.564  17.075 127.591  1.00  0.00     0.039 A 
ATOM     21 C16  LIG L   1     -16.527  18.015 127.448  1.00  0.00     0.023 A 
ATOM     22 C17  LIG L   1     -17.290  15.738 127.362  1.00  0.00     0.023 A 
ATOM     23 C18  LIG L   1     -15.230  17.642 127.148  1.00  0.00     0.002 A 
ATOM     24 C19  LIG L   1     -15.971  15.356 127.024  1.00  0.00     0.002 A 
ATOM     25 C20  LIG L   1     -14.950  16.309 126.926  1.00  0.00     0.000 A 
ENDBRANCH   11   20
TORSDOF 2
REMARK Flexibility Score: inf
REMARK Active torsions [ 2 ] -> [ 2 ]
ROOT
ATOM      1  C1  LIG L   1     -12.180  15.682 130.161  1.00  0.00     0.200 C 
ATOM      2  N1  LIG L   1     -13.626  16.159 130.231  1.00  0.00    -0.321 N 
ATOM      3  C2  LIG L   1     -14.512  15.308 130.906  1.00  0.00     0.041 A 
ATOM      4  C3  LIG L   1     -15.828  15.214 130.521  1.00  0.00     0.024 A 
ATOM      5  C4  LIG L   1     -16.705  14.342 131.168  1.00  0.00     0.002 A 
ATOM      6  C5  LIG L   1     -16.222  13.567 132.187  1.00  0.00     0.001 A 
ATOM      7  C6  LIG L   1     -14.882  13.650 132.556  1.00  0.00     0.015 A 
ATOM      8  C7  LIG L   1     -14.000  14.475 131.880  1.00  0.00     0.058 A 
ATOM      9  C8  LIG L   1     -12.708  14.715 132.305  1.00  0.00     0.254 C 
ATOM     10  O1  LIG L   1     -12.476  14.649 133.501  1.00  0.00    -0.270 OA
ATOM     11  N2  LIG L   1     -11.824  15.436 131.586  1.00  0.00    -0.244 N 
ATOM     12  H1  LIG L   1     -13.918  17.008 129.828  1.00  0.00     0.148 HD
ENDROOT
BRANCH    1   13
ATOM     13  C9  LIG L   1     -11.886  14.483 129.402  1.00  0.00     0.026 A 
ATOM     14  F1  LIG L   1     -12.282  15.673 127.350  1.00  0.00    -0.205 F 
ATOM     15 C10  LIG L   1     -11.932  14.517 128.002  1.00  0.00     0.130 A 
ATOM     16 C11  LIG L   1     -11.617  13.395 127.237  1.00  0.00     0.039 A 
ATOM     17 C12  LIG L   1     -11.241  12.217 127.857  1.00  0.00     0.003 A 
ATOM     18 C13  LIG L   1     -11.496  13.271 130.005  1.00  0.00     0.010 A 
ATOM     19 C14  LIG L   1     -11.199  12.154 129.246  1.00  0.00     0.001 A 
ENDBRANCH    1   13
BRANCH   11   20
ATOM     20 C15  LIG L   1     -10.692  15.965 132.092  1.00  0.00     0.039 A 
ATOM     21 C16  LIG L   1      -9.550  16.110 131.308  1.00  0.00     0.023 A 
ATOM     22 C17  LIG L   1     -10.685  16.500 133.389  1.00  0.00     0.023 A 
ATOM     23 C18  LIG L   1      -8.418  16.742 131.845  1.00  0.00     0.002 A 
ATOM     24 C19  LIG L   1      -9.557  17.104 133.943  1.00  0.00     0.002 A 
ATOM     25 C20  LIG L   1      -8.406  17.221 133.173  1.00  0.00     0.000 A 
ENDBRANCH   11   20
TORSDOF 2
ENDMDL
MODEL 2
REMARK VINA RESULT:   -20.942      1.061      3.648
REMARK ITER + INTRA:          -25.323
REMARK INTER:                 -25.642
REMARK INTRA:                   0.319
REMARK UNBOUND:                 0.517
REMARK Flexibility Score: inf
REMARK Active torsions [ 2 ] -> [ 2 ]
ROOT
ATOM      1  C1  LIG L   1     -19.912  16.326 127.976  1.00  0.00     0.200 C 
ATOM      2  N1  LIG L   1     -18.848  15.595 127.234  1.00  0.00    -0.321 N 
ATOM      3  C2  LIG L   1     -17.551  16.075 127.286  1.00  0.00     0.041 A 
ATOM      4  C3  LIG L   1     -16.509  15.240 126.951  1.00  0.00     0.024 A 
ATOM      5  C4  LIG L   1     -15.188  15.697 126.986  1.00  0.00     0.002 A 
ATOM      6  C5  LIG L   1     -14.965  17.004 127.346  1.00  0.00     0.001 A 
ATOM      7  C6  LIG L   1     -16.026  17.863 127.689  1.00  0.00     0.015 A 
ATOM      8  C7  LIG L   1     -17.322  17.387 127.696  1.00  0.00     0.058 A 
ATOM      9  C8  LIG L   1     -18.402  18.247 127.914  1.00  0.00     0.254 C 
ATOM     10  O1  LIG L   1     -18.263  19.483 127.841  1.00  0.00    -0.270 OA
ATOM     11  N2  LIG L   1     -19.658  17.780 127.933  1.00  0.00    -0.244 N 
ATOM     12  H1  LIG L   1     -19.062  14.785 126.717  1.00  0.00     0.148 HD
ENDROOT
BRANCH    1   13
ATOM     13  C9  LIG L   1     -19.968  15.929 129.332  1.00  0.00     0.026 A 
ATOM     14  F1  LIG L   1     -21.005  14.015 128.649  1.00  0.00    -0.205 F 
ATOM     15 C10  LIG L   1     -20.558  14.705 129.619  1.00  0.00     0.130 A 
ATOM     16 C11  LIG L   1     -20.672  14.233 130.921  1.00  0.00     0.039 A 
ATOM     17 C12  LIG L   1     -19.515  16.695 130.428  1.00  0.00     0.010 A 
ATOM     18 C13  LIG L   1     -20.220  14.972 132.000  1.00  0.00     0.003 A 
ATOM     19 C14  LIG L   1     -19.610  16.200 131.747  1.00  0.00     0.001 A 
ENDBRANCH    1   13
BRANCH   11   20
ATOM     20 C15  LIG L   1     -20.691  18.632 127.844  1.00  0.00     0.039 A 
ATOM     21 C16  LIG L   1     -21.307  18.717 126.581  1.00  0.00     0.023 A 
ATOM     22 C17  LIG L   1     -21.160  19.432 128.871  1.00  0.00     0.023 A 
ATOM     23 C18  LIG L   1     -22.403  19.527 126.348  1.00  0.00     0.002 A 
ATOM     24 C19  LIG L   1     -22.262  20.285 128.628  1.00  0.00     0.002 A 
ATOM     25 C20  LIG L   1     -22.880  20.320 127.371  1.00  0.00     0.000 A 
ENDBRANCH   11   20
TORSDOF 2
REMARK Flexibility Score: inf
REMARK Active torsions [ 2 ] -> [ 2 ]
ROOT
ATOM      1  C1  LIG L   1     -12.076  15.569 130.122  1.00  0.00     0.200 C 
ATOM      2  N1  LIG L   1     -13.527  16.029 130.188  1.00  0.00    -0.321 N 
ATOM      3  C2  LIG L   1     -14.398  15.187 130.893  1.00  0.00     0.041 A 
ATOM      4  C3  LIG L   1     -15.715  15.063 130.521  1.00  0.00     0.024 A 
ATOM      5  C4  LIG L   1     -16.575  14.199 131.200  1.00  0.00     0.002 A 
ATOM      6  C5  LIG L   1     -16.075  13.462 132.238  1.00  0.00     0.001 A 
ATOM      7  C6  LIG L   1     -14.734  13.573 132.595  1.00  0.00     0.015 A 
ATOM      8  C7  LIG L   1     -13.868  14.389 131.889  1.00  0.00     0.058 A 
ATOM      9  C8  LIG L   1     -12.576  14.660 132.297  1.00  0.00     0.254 C 
ATOM     10  O1  LIG L   1     -12.336  14.632 133.493  1.00  0.00    -0.270 OA
ATOM     11  N2  LIG L   1     -11.707  15.371 131.551  1.00  0.00    -0.244 N 
ATOM     12  H1  LIG L   1     -13.833  16.862 129.762  1.00  0.00     0.148 HD
ENDROOT
BRANCH    1   13
ATOM     13  C9  LIG L   1     -11.770  14.353 129.396  1.00  0.00     0.026 A 
ATOM     14  F1  LIG L   1     -12.135  15.493 127.311  1.00  0.00    -0.205 F 
ATOM     15 C10  LIG L   1     -11.795  14.353 127.995  1.00  0.00     0.130 A 
ATOM     16 C11  LIG L   1     -11.468  13.213 127.262  1.00  0.00     0.039 A 
ATOM     17 C12  LIG L   1     -11.102  12.050 127.916  1.00  0.00     0.003 A 
ATOM     18 C13  LIG L   1     -11.390  13.156 130.034  1.00  0.00     0.010 A 
ATOM     19 C14  LIG L   1     -11.081  12.020 129.307  1.00  0.00     0.001 A 
ENDBRANCH    1   13
BRANCH   11   20
ATOM     20 C15  LIG L   1     -10.579  15.930 132.033  1.00  0.00     0.039 A 
ATOM     21 C16  LIG L   1      -9.460  16.111 131.223  1.00  0.00     0.023 A 
ATOM     22 C17  LIG L   1     -10.557  16.459 133.332  1.00  0.00     0.023 A 
ATOM     23 C18  LIG L   1      -8.334  16.773 131.737  1.00  0.00     0.002 A 
ATOM     24 C19  LIG L   1      -9.434  17.093 133.863  1.00  0.00     0.002 A 
ATOM     25 C20  LIG L   1      -8.305  17.246 133.067  1.00  0.00     0.000 A 
ENDBRANCH   11   20
TORSDOF 2
ENDMDL
MODEL 3
REMARK VINA RESULT:   -20.729      1.392      3.181
REMARK ITER + INTRA:          -25.059
REMARK INTER:                 -25.448
REMARK INTRA:                   0.389
REMARK UNBOUND:                 0.517
REMARK Flexibility Score: inf
REMARK Active torsions [ 2 ] -> [ 2 ]
ROOT
ATOM      1  C1  LIG L   1     -18.874  17.861 129.323  1.00  0.00     0.200 C 
ATOM      2  N1  LIG L   1     -19.739  19.071 129.379  1.00  0.00    -0.321 N 
ATOM      3  C2  LIG L   1     -20.698  19.249 128.397  1.00  0.00     0.041 A 
ATOM      4  C3  LIG L   1     -21.741  20.119 128.624  1.00  0.00     0.024 A 
ATOM      5  C4  LIG L   1     -22.722  20.326 127.649  1.00  0.00     0.002 A 
ATOM      6  C5  LIG L   1     -22.604  19.653 126.457  1.00  0.00     0.001 A 
ATOM      7  C6  LIG L   1     -21.540  18.762 126.220  1.00  0.00     0.015 A 
ATOM      8  C7  LIG L   1     -20.603  18.530 127.207  1.00  0.00     0.058 A 
ATOM      9  C8  LIG L   1     -19.473  17.747 126.956  1.00  0.00     0.254 C 
ATOM     10  O1  LIG L   1     -19.137  17.461 125.791  1.00  0.00    -0.270 OA
ATOM     11  N2  LIG L   1     -18.572  17.513 127.920  1.00  0.00    -0.244 N 
ATOM     12  H1  LIG L   1     -19.631  19.732 130.100  1.00  0.00     0.148 HD
ENDROOT
BRANCH    1   13
ATOM     13  C9  LIG L   1     -19.499  16.745 129.927  1.00  0.00     0.026 A 
ATOM     14  F1  LIG L   1     -18.770  17.528 131.943  1.00  0.00    -0.205 F 
ATOM     15 C10  LIG L   1     -19.405  16.627 131.308  1.00  0.00     0.130 A 
ATOM     16 C11  LIG L   1     -19.975  15.561 131.994  1.00  0.00     0.039 A 
ATOM     17 C12  LIG L   1     -20.173  15.713 129.240  1.00  0.00     0.010 A 
ATOM     18 C13  LIG L   1     -20.647  14.551 131.329  1.00  0.00     0.003 A 
ATOM     19 C14  LIG L   1     -20.772  14.645 129.943  1.00  0.00     0.001 A 
ENDBRANCH    1   13
BRANCH   11   20
ATOM     20 C15  LIG L   1     -17.363  17.022 127.603  1.00  0.00     0.039 A 
ATOM     21 C16  LIG L   1     -16.362  17.979 127.352  1.00  0.00     0.023 A 
ATOM     22 C17  LIG L   1     -17.051  15.680 127.479  1.00  0.00     0.023 A 
ATOM     23 C18  LIG L   1     -15.062  17.623 127.047  1.00  0.00     0.002 A 
ATOM     24 C19  LIG L   1     -15.728  15.313 127.137  1.00  0.00     0.002 A 
ATOM     25 C20  LIG L   1     -14.742  16.286 126.930  1.00  0.00     0.000 A 
ENDBRANCH   11   20
TORSDOF 2
REMARK Flexibility Score: inf
REMARK Active torsions [ 2 ] -> [ 2 ]
ROOT
ATOM      1  C1  LIG L   1     -11.803  14.213 131.869  1.00  0.00     0.200 C 
ATOM      2  N1  LIG L   1     -11.317  12.925 131.215  1.00  0.00    -0.321 N 
ATOM      3  C2  LIG L   1     -11.073  13.000 129.837  1.00  0.00     0.041 A 
ATOM      4  C3  LIG L   1     -11.284  11.913 129.024  1.00  0.00     0.024 A 
ATOM      5  C4  LIG L   1     -11.075  11.995 127.647  1.00  0.00     0.002 A 
ATOM      6  C5  LIG L   1     -10.670  13.190 127.118  1.00  0.00     0.001 A 
ATOM      7  C6  LIG L   1     -10.482  14.295 127.943  1.00  0.00     0.015 A 
ATOM      8  C7  LIG L   1     -10.740  14.229 129.301  1.00  0.00     0.058 A 
ATOM      9  C8  LIG L   1     -10.417  15.240 130.185  1.00  0.00     0.254 C 
ATOM     10  O1  LIG L   1      -9.467  15.955 129.916  1.00  0.00    -0.270 OA
ATOM     11  N2  LIG L   1     -10.766  15.211 131.488  1.00  0.00    -0.244 N 
ATOM     12  H1  LIG L   1     -11.185  12.095 131.727  1.00  0.00     0.148 HD
ENDROOT
BRANCH    1   13
ATOM     13  C9  LIG L   1     -13.101  14.733 131.489  1.00  0.00     0.026 A 
ATOM     14  F1  LIG L   1     -14.177  12.925 132.654  1.00  0.00    -0.205 F 
ATOM     15 C10  LIG L   1     -14.265  14.074 131.909  1.00  0.00     0.130 A 
ATOM     16 C11  LIG L   1     -15.531  14.565 131.595  1.00  0.00     0.039 A 
ATOM     17 C12  LIG L   1     -15.660  15.731 130.861  1.00  0.00     0.003 A 
ATOM     18 C13  LIG L   1     -13.264  15.919 130.746  1.00  0.00     0.010 A 
ATOM     19 C14  LIG L   1     -14.521  16.397 130.422  1.00  0.00     0.001 A 
ENDBRANCH    1   13
BRANCH   11   20
ATOM     20 C15  LIG L   1     -10.206  15.988 132.437  1.00  0.00     0.039 A 
ATOM     21 C16  LIG L   1     -10.822  16.176 133.672  1.00  0.00     0.023 A 
ATOM     22 C17  LIG L   1      -8.923  16.521 132.241  1.00  0.00     0.023 A 
ATOM     23 C18  LIG L   1     -10.168  16.922 134.664  1.00  0.00     0.002 A 
ATOM     24 C19  LIG L   1      -8.276  17.288 133.209  1.00  0.00     0.002 A 
ATOM     25 C20  LIG L   1      -8.903  17.503 134.431  1.00  0.00     0.000 A 
ENDBRANCH   11   20
TORSDOF 2
ENDMDL
MODEL 4
REMARK VINA RESULT:   -19.928      1.744      4.841
REMARK ITER + INTRA:          -24.071
REMARK INTER:                 -24.430
REMARK INTRA:                   0.359
REMARK UNBOUND:                 0.517
REMARK Flexibility Score: inf
REMARK Active torsions [ 2 ] -> [ 2 ]
ROOT
ATOM      1  C1  LIG L   1     -19.803  16.301 127.970  1.00  0.00     0.200 C 
ATOM      2  N1  LIG L   1     -18.699  15.605 127.254  1.00  0.00    -0.321 N 
ATOM      3  C2  LIG L   1     -17.424  16.139 127.319  1.00  0.00     0.041 A 
ATOM      4  C3  LIG L   1     -16.343  15.343 127.010  1.00  0.00     0.024 A 
ATOM      5  C4  LIG L   1     -15.043  15.854 127.059  1.00  0.00     0.002 A 
ATOM      6  C5  LIG L   1     -14.878  17.174 127.406  1.00  0.00     0.001 A 
ATOM      7  C6  LIG L   1     -15.979  17.992 127.722  1.00  0.00     0.015 A 
ATOM      8  C7  LIG L   1     -17.254  17.464 127.716  1.00  0.00     0.058 A 
ATOM      9  C8  LIG L   1     -18.372  18.282 127.907  1.00  0.00     0.254 C 
ATOM     10  O1  LIG L   1     -18.282  19.521 127.821  1.00  0.00    -0.270 OA
ATOM     11  N2  LIG L   1     -19.608  17.764 127.913  1.00  0.00    -0.244 N 
ATOM     12  H1  LIG L   1     -18.872  14.781 126.744  1.00  0.00     0.148 HD
ENDROOT
BRANCH    1   13
ATOM     13  C9  LIG L   1     -19.864  15.919 129.331  1.00  0.00     0.026 A 
ATOM     14  F1  LIG L   1     -21.011  14.059 128.676  1.00  0.00    -0.205 F 
ATOM     15 C10  LIG L   1     -20.515  14.731 129.635  1.00  0.00     0.130 A 
ATOM     16 C11  LIG L   1     -20.639  14.276 130.942  1.00  0.00     0.039 A 
ATOM     17 C12  LIG L   1     -19.357  16.668 130.414  1.00  0.00     0.010 A 
ATOM     18 C13  LIG L   1     -20.135  14.998 132.009  1.00  0.00     0.003 A 
ATOM     19 C14  LIG L   1     -19.462  16.189 131.739  1.00  0.00     0.001 A 
ENDBRANCH    1   13
BRANCH   11   20
ATOM     20 C15  LIG L   1     -20.674  18.571 127.798  1.00  0.00     0.039 A 
ATOM     21 C16  LIG L   1     -21.212  18.694 126.503  1.00  0.00     0.023 A 
ATOM     22 C17  LIG L   1     -21.245  19.296 128.830  1.00  0.00     0.023 A 
ATOM     23 C18  LIG L   1     -22.328  19.464 126.238  1.00  0.00     0.002 A 
ATOM     24 C19  LIG L   1     -22.369  20.109 128.556  1.00  0.00     0.002 A 
ATOM     25 C20  LIG L   1     -22.907  20.182 127.265  1.00  0.00     0.000 A 
ENDBRANCH   11   20
TORSDOF 2
REMARK Flexibility Score: inf
REMARK Active torsions [ 2 ] -> [ 2 ]
ROOT
ATOM      1  C1  LIG L   1     -11.711  14.134 131.898  1.00  0.00     0.200 C 
ATOM      2  N1  LIG L   1     -11.201  12.870 131.216  1.00  0.00    -0.321 N 
ATOM      3  C2  LIG L   1     -11.004  12.965 129.832  1.00  0.00     0.041 A 
ATOM      4  C3  LIG L   1     -11.202  11.877 129.016  1.00  0.00     0.024 A 
ATOM      5  C4  LIG L   1     -11.041  11.978 127.633  1.00  0.00     0.002 A 
ATOM      6  C5  LIG L   1     -10.697  13.191 127.102  1.00  0.00     0.001 A 
ATOM      7  C6  LIG L   1     -10.522  14.295 127.931  1.00  0.00     0.015 A 
ATOM      8  C7  LIG L   1     -10.733  14.209 129.297  1.00  0.00     0.058 A 
ATOM      9  C8  LIG L   1     -10.419  15.224 130.180  1.00  0.00     0.254 C 
ATOM     10  O1  LIG L   1      -9.504  15.976 129.886  1.00  0.00    -0.270 OA
ATOM     11  N2  LIG L   1     -10.724  15.172 131.492  1.00  0.00    -0.244 N 
ATOM     12  H1  LIG L   1     -11.022  12.041 131.716  1.00  0.00     0.148 HD
ENDROOT
BRANCH    1   13
ATOM     13  C9  LIG L   1     -13.039  14.609 131.564  1.00  0.00     0.026 A 
ATOM     14  F1  LIG L   1     -14.011  12.754 132.746  1.00  0.00    -0.205 F 
ATOM     15 C10  LIG L   1     -14.164  13.905 132.015  1.00  0.00     0.130 A 
ATOM     16 C11  LIG L   1     -15.456  14.352 131.747  1.00  0.00     0.039 A 
ATOM     17 C12  LIG L   1     -15.651  15.519 131.028  1.00  0.00     0.003 A 
ATOM     18 C13  LIG L   1     -13.268  15.795 130.838  1.00  0.00     0.010 A 
ATOM     19 C14  LIG L   1     -14.551  16.230 130.559  1.00  0.00     0.001 A 
ENDBRANCH    1   13
BRANCH   11   20
ATOM     20 C15  LIG L   1     -10.162  15.961 132.430  1.00  0.00     0.039 A 
ATOM     21 C16  LIG L   1     -10.763  16.147 133.672  1.00  0.00     0.023 A 
ATOM     22 C17  LIG L   1      -8.888  16.510 132.215  1.00  0.00     0.023 A 
ATOM     23 C18  LIG L   1     -10.107  16.907 134.652  1.00  0.00     0.002 A 
ATOM     24 C19  LIG L   1      -8.239  17.290 133.170  1.00  0.00     0.002 A 
ATOM     25 C20  LIG L   1      -8.852  17.503 134.399  1.00  0.00     0.000 A 
ENDBRANCH   11   20
TORSDOF 2
ENDMDL
MODEL 5
REMARK VINA RESULT:   -19.344      1.384      3.352
REMARK ITER + INTRA:          -23.351
REMARK INTER:                 -23.832
REMARK INTRA:                   0.481
REMARK UNBOUND:                 0.517
REMARK Flexibility Score: inf
REMARK Active torsions [ 2 ] -> [ 2 ]
ROOT
ATOM      1  C1  LIG L   1     -19.482  16.520 127.374  1.00  0.00     0.200 C 
ATOM      2  N1  LIG L   1     -20.244  16.879 126.146  1.00  0.00    -0.321 N 
ATOM      3  C2  LIG L   1     -20.866  18.113 126.086  1.00  0.00     0.041 A 
ATOM      4  C3  LIG L   1     -21.236  18.623 124.862  1.00  0.00     0.024 A 
ATOM      5  C4  LIG L   1     -21.872  19.865 124.768  1.00  0.00     0.002 A 
ATOM      6  C5  LIG L   1     -22.132  20.548 125.932  1.00  0.00     0.001 A 
ATOM      7  C6  LIG L   1     -21.756  20.033 127.186  1.00  0.00     0.015 A 
ATOM      8  C7  LIG L   1     -21.087  18.828 127.263  1.00  0.00     0.058 A 
ATOM      9  C8  LIG L   1     -20.810  18.236 128.498  1.00  0.00     0.254 C 
ATOM     10  O1  LIG L   1     -21.380  18.624 129.536  1.00  0.00    -0.270 OA
ATOM     11  N2  LIG L   1     -20.149  17.073 128.569  1.00  0.00    -0.244 N 
ATOM     12  H1  LIG L   1     -20.304  16.250 125.391  1.00  0.00     0.148 HD
ENDROOT
BRANCH    1   13
ATOM     13  C9  LIG L   1     -18.161  17.027 127.334  1.00  0.00     0.026 A 
ATOM     14  F1  LIG L   1     -17.549  15.127 126.228  1.00  0.00    -0.205 F 
ATOM     15 C10  LIG L   1     -17.192  16.245 126.720  1.00  0.00     0.130 A 
ATOM     16 C11  LIG L   1     -15.865  16.649 126.641  1.00  0.00     0.039 A 
ATOM     17 C12  LIG L   1     -17.735  18.244 127.907  1.00  0.00     0.010 A 
ATOM     18 C13  LIG L   1     -15.440  17.846 127.190  1.00  0.00     0.003 A 
ATOM     19 C14  LIG L   1     -16.390  18.662 127.802  1.00  0.00     0.001 A 
ENDBRANCH    1   13
BRANCH   11   20
ATOM     20 C15  LIG L   1     -20.148  16.371 129.714  1.00  0.00     0.039 A 
ATOM     21 C16  LIG L   1     -20.604  15.043 129.617  1.00  0.00     0.023 A 
ATOM     22 C17  LIG L   1     -19.770  16.859 130.952  1.00  0.00     0.023 A 
ATOM     23 C18  LIG L   1     -20.628  14.191 130.705  1.00  0.00     0.002 A 
ATOM     24 C19  LIG L   1     -19.823  15.998 132.074  1.00  0.00     0.002 A 
ATOM     25 C20  LIG L   1     -20.245  14.669 131.940  1.00  0.00     0.000 A 
ENDBRANCH   11   20
TORSDOF 2
REMARK Flexibility Score: inf
REMARK Active torsions [ 2 ] -> [ 2 ]
ROOT
ATOM      1  C1  LIG L   1     -12.145  15.866 130.075  1.00  0.00     0.200 C 
ATOM      2  N1  LIG L   1     -13.574  16.396 130.058  1.00  0.00    -0.321 N 
ATOM      3  C2  LIG L   1     -14.536  15.563 130.646  1.00  0.00     0.041 A 
ATOM      4  C3  LIG L   1     -15.824  15.528 130.169  1.00  0.00     0.024 A 
ATOM      5  C4  LIG L   1     -16.775  14.674 130.730  1.00  0.00     0.002 A 
ATOM      6  C5  LIG L   1     -16.393  13.858 131.759  1.00  0.00     0.001 A 
ATOM      7  C6  LIG L   1     -15.080  13.880 132.222  1.00  0.00     0.015 A 
ATOM      8  C7  LIG L   1     -14.124  14.687 131.631  1.00  0.00     0.058 A 
ATOM      9  C8  LIG L   1     -12.857  14.869 132.151  1.00  0.00     0.254 C 
ATOM     10  O1  LIG L   1     -12.712  14.764 133.357  1.00  0.00    -0.270 OA
ATOM     11  N2  LIG L   1     -11.899  15.573 131.514  1.00  0.00    -0.244 N 
ATOM     12  H1  LIG L   1     -13.806  17.265 129.659  1.00  0.00     0.148 HD
ENDROOT
BRANCH    1   13
ATOM     13  C9  LIG L   1     -11.842  14.676 129.306  1.00  0.00     0.026 A 
ATOM     14  F1  LIG L   1     -12.746  15.709 127.332  1.00  0.00    -0.205 F 
ATOM     15 C10  LIG L   1     -12.141  14.637 127.937  1.00  0.00     0.130 A 
ATOM     16 C11  LIG L   1     -11.829  13.525 127.157  1.00  0.00     0.039 A 
ATOM     17 C12  LIG L   1     -11.202  12.431 127.728  1.00  0.00     0.003 A 
ATOM     18 C13  LIG L   1     -11.200  13.550 129.859  1.00  0.00     0.010 A 
ATOM     19 C14  LIG L   1     -10.904  12.441 129.087  1.00  0.00     0.001 A 
ENDBRANCH    1   13
BRANCH   11   20
ATOM     20 C15  LIG L   1     -10.787  16.046 132.111  1.00  0.00     0.039 A 
ATOM     21 C16  LIG L   1      -9.634  16.319 131.378  1.00  0.00     0.023 A 
ATOM     22 C17  LIG L   1     -10.813  16.395 133.470  1.00  0.00     0.023 A 
ATOM     23 C18  LIG L   1      -8.525  16.890 132.020  1.00  0.00     0.002 A 
ATOM     24 C19  LIG L   1      -9.708  16.936 134.125  1.00  0.00     0.002 A 
ATOM     25 C20  LIG L   1      -8.546  17.179 133.402  1.00  0.00     0.000 A 
ENDBRANCH   11   20
TORSDOF 2
ENDMDL
MODEL 6
REMARK VINA RESULT:   -19.047      1.185      9.184
REMARK ITER + INTRA:          -22.985
REMARK INTER:                 -22.650
REMARK INTRA:                  -0.335
REMARK UNBOUND:                 0.517
REMARK Flexibility Score: inf
REMARK Active torsions [ 2 ] -> [ 2 ]
ROOT
ATOM      1  C1  LIG L   1     -12.363  15.371 129.985  1.00  0.00     0.200 C 
ATOM      2  N1  LIG L   1     -11.343  16.452 130.074  1.00  0.00    -0.321 N 
ATOM      3  C2  LIG L   1     -10.454  16.443 131.134  1.00  0.00     0.041 A 
ATOM      4  C3  LIG L   1      -9.290  17.172 131.045  1.00  0.00     0.024 A 
ATOM      5  C4  LIG L   1      -8.375  17.188 132.102  1.00  0.00     0.002 A 
ATOM      6  C5  LIG L   1      -8.681  16.472 133.235  1.00  0.00     0.001 A 
ATOM      7  C6  LIG L   1      -9.869  15.725 133.332  1.00  0.00     0.015 A 
ATOM      8  C7  LIG L   1     -10.743  15.679 132.264  1.00  0.00     0.058 A 
ATOM      9  C8  LIG L   1     -11.984  15.046 132.377  1.00  0.00     0.254 C 
ATOM     10  O1  LIG L   1     -12.451  14.746 133.492  1.00  0.00    -0.270 OA
ATOM     11  N2  LIG L   1     -12.824  14.992 131.335  1.00  0.00    -0.244 N 
ATOM     12  H1  LIG L   1     -11.301  17.161 129.391  1.00  0.00     0.148 HD
ENDROOT
BRANCH    1   13
ATOM     13  C9  LIG L   1     -11.843  14.215 129.357  1.00  0.00     0.026 A 
ATOM     14  F1  LIG L   1     -12.179  15.250 127.351  1.00  0.00    -0.205 F 
ATOM     15 C10  LIG L   1     -11.776  14.214 127.970  1.00  0.00     0.130 A 
ATOM     16 C11  LIG L   1     -11.293  13.122 127.259  1.00  0.00     0.039 A 
ATOM     17 C12  LIG L   1     -11.428  13.041 130.020  1.00  0.00     0.010 A 
ATOM     18 C13  LIG L   1     -10.873  11.970 127.902  1.00  0.00     0.003 A 
ATOM     19 C14  LIG L   1     -10.914  11.943 129.295  1.00  0.00     0.001 A 
ENDBRANCH    1   13
BRANCH   11   20
ATOM     20 C15  LIG L   1     -14.110  14.655 131.527  1.00  0.00     0.039 A 
ATOM     21 C16  LIG L   1     -15.060  15.588 131.070  1.00  0.00     0.023 A 
ATOM     22 C17  LIG L   1     -14.552  13.503 132.152  1.00  0.00     0.023 A 
ATOM     23 C18  LIG L   1     -16.420  15.363 131.169  1.00  0.00     0.002 A 
ATOM     24 C19  LIG L   1     -15.943  13.285 132.284  1.00  0.00     0.002 A 
ATOM     25 C20  LIG L   1     -16.867  14.212 131.785  1.00  0.00     0.000 A 
ENDBRANCH   11   20
TORSDOF 2
REMARK Flexibility Score: inf
REMARK Active torsions [ 2 ] -> [ 2 ]
ROOT
ATOM      1  C1  LIG L   1     -18.662  18.327 129.044  1.00  0.00     0.200 C 
ATOM      2  N1  LIG L   1     -18.922  17.859 130.470  1.00  0.00    -0.321 N 
ATOM      3  C2  LIG L   1     -19.614  16.645 130.593  1.00  0.00     0.041 A 
ATOM      4  C3  LIG L   1     -20.467  16.424 131.647  1.00  0.00     0.024 A 
ATOM      5  C4  LIG L   1     -21.183  15.231 131.753  1.00  0.00     0.002 A 
ATOM      6  C5  LIG L   1     -21.031  14.289 130.773  1.00  0.00     0.001 A 
ATOM      7  C6  LIG L   1     -20.185  14.529 129.695  1.00  0.00     0.015 A 
ATOM      8  C7  LIG L   1     -19.515  15.733 129.561  1.00  0.00     0.058 A 
ATOM      9  C8  LIG L   1     -18.544  15.960 128.605  1.00  0.00     0.254 C 
ATOM     10  O1  LIG L   1     -17.893  15.007 128.212  1.00  0.00    -0.270 OA
ATOM     11  N2  LIG L   1     -17.973  17.167 128.416  1.00  0.00    -0.244 N 
ATOM     12  H1  LIG L   1     -18.625  18.374 131.254  1.00  0.00     0.148 HD
ENDROOT
BRANCH    1   13
ATOM     13  C9  LIG L   1     -19.797  18.688 128.219  1.00  0.00     0.026 A 
ATOM     14  F1  LIG L   1     -20.369  20.447 129.756  1.00  0.00    -0.205 F 
ATOM     15 C10  LIG L   1     -20.619  19.759 128.595  1.00  0.00     0.130 A 
ATOM     16 C11  LIG L   1     -21.697  20.160 127.807  1.00  0.00     0.039 A 
ATOM     17 C12  LIG L   1     -21.970  19.502 126.621  1.00  0.00     0.003 A 
ATOM     18 C13  LIG L   1     -20.098  18.040 127.004  1.00  0.00     0.010 A 
ATOM     19 C14  LIG L   1     -21.176  18.429 126.230  1.00  0.00     0.001 A 
ENDBRANCH    1   13
BRANCH   11   20
ATOM     20 C15  LIG L   1     -16.820  17.359 127.744  1.00  0.00     0.039 A 
ATOM     21 C16  LIG L   1     -15.633  17.649 128.414  1.00  0.00     0.023 A 
ATOM     22 C17  LIG L   1     -16.770  17.143 126.358  1.00  0.00     0.023 A 
ATOM     23 C18  LIG L   1     -14.438  17.759 127.687  1.00  0.00     0.002 A 
ATOM     24 C19  LIG L   1     -15.594  17.278 125.622  1.00  0.00     0.002 A 
ATOM     25 C20  LIG L   1     -14.415  17.598 126.284  1.00  0.00     0.000 A 
ENDBRANCH   11   20
TORSDOF 2
ENDMDL
MODEL 7
REMARK VINA RESULT:   -18.896      1.198      3.586
REMARK ITER + INTRA:          -22.798
REMARK INTER:                 -22.577
REMARK INTRA:                  -0.221
REMARK UNBOUND:                 0.517
REMARK Flexibility Score: inf
REMARK Active torsions [ 2 ] -> [ 2 ]
ROOT
ATOM      1  C1  LIG L   1     -18.951  17.846 129.375  1.00  0.00     0.200 C 
ATOM      2  N1  LIG L   1     -19.799  19.070 129.390  1.00  0.00    -0.321 N 
ATOM      3  C2  LIG L   1     -20.738  19.241 128.388  1.00  0.00     0.041 A 
ATOM      4  C3  LIG L   1     -21.772  20.131 128.577  1.00  0.00     0.024 A 
ATOM      5  C4  LIG L   1     -22.732  20.331 127.581  1.00  0.00     0.002 A 
ATOM      6  C5  LIG L   1     -22.603  19.631 126.406  1.00  0.00     0.001 A 
ATOM      7  C6  LIG L   1     -21.549  18.721 126.207  1.00  0.00     0.015 A 
ATOM      8  C7  LIG L   1     -20.633  18.496 127.215  1.00  0.00     0.058 A 
ATOM      9  C8  LIG L   1     -19.510  17.691 127.000  1.00  0.00     0.254 C 
ATOM     10  O1  LIG L   1     -19.158  17.376 125.848  1.00  0.00    -0.270 OA
ATOM     11  N2  LIG L   1     -18.630  17.465 127.985  1.00  0.00    -0.244 N 
ATOM     12  H1  LIG L   1     -19.695  19.745 130.099  1.00  0.00     0.148 HD
ENDROOT
BRANCH    1   13
ATOM     13  C9  LIG L   1     -19.603  16.753 129.991  1.00  0.00     0.026 A 
ATOM     14  F1  LIG L   1     -18.992  17.627 132.008  1.00  0.00    -0.205 F 
ATOM     15 C10  LIG L   1     -19.586  16.695 131.378  1.00  0.00     0.130 A 
ATOM     16 C11  LIG L   1     -20.187  15.655 132.077  1.00  0.00     0.039 A 
ATOM     17 C12  LIG L   1     -20.233  15.688 129.313  1.00  0.00     0.010 A 
ATOM     18 C13  LIG L   1     -20.817  14.612 131.420  1.00  0.00     0.003 A 
ATOM     19 C14  LIG L   1     -20.865  14.646 130.027  1.00  0.00     0.001 A 
ENDBRANCH    1   13
BRANCH   11   20
ATOM     20 C15  LIG L   1     -17.423  16.950 127.700  1.00  0.00     0.039 A 
ATOM     21 C16  LIG L   1     -16.423  17.884 127.372  1.00  0.00     0.023 A 
ATOM     22 C17  LIG L   1     -17.112  15.602 127.678  1.00  0.00     0.023 A 
ATOM     23 C18  LIG L   1     -15.124  17.504 127.088  1.00  0.00     0.002 A 
ATOM     24 C19  LIG L   1     -15.792  15.208 127.357  1.00  0.00     0.002 A 
ATOM     25 C20  LIG L   1     -14.806  16.162 127.072  1.00  0.00     0.000 A 
ENDBRANCH   11   20
TORSDOF 2
REMARK Flexibility Score: inf
REMARK Active torsions [ 2 ] -> [ 2 ]
ROOT
ATOM      1  C1  LIG L   1     -12.641  15.368 130.368  1.00  0.00     0.200 C 
ATOM      2  N1  LIG L   1     -11.964  16.619 130.914  1.00  0.00    -0.321 N 
ATOM      3  C2  LIG L   1     -11.321  16.470 132.151  1.00  0.00     0.041 A 
ATOM      4  C3  LIG L   1     -11.265  17.512 133.046  1.00  0.00     0.024 A 
ATOM      5  C4  LIG L   1     -10.657  17.356 134.292  1.00  0.00     0.002 A 
ATOM      6  C5  LIG L   1     -10.130  16.135 134.613  1.00  0.00     0.001 A 
ATOM      7  C6  LIG L   1     -10.212  15.077 133.713  1.00  0.00     0.015 A 
ATOM      8  C7  LIG L   1     -10.862  15.215 132.499  1.00  0.00     0.058 A 
ATOM      9  C8  LIG L   1     -10.831  14.254 131.507  1.00  0.00     0.254 C 
ATOM     10  O1  LIG L   1      -9.854  13.527 131.444  1.00  0.00    -0.270 OA
ATOM     11  N2  LIG L   1     -11.552  14.353 130.371  1.00  0.00    -0.244 N 
ATOM     12  H1  LIG L   1     -11.978  17.476 130.430  1.00  0.00     0.148 HD
ENDROOT
BRANCH    1   13
ATOM     13  C9  LIG L   1     -13.774  14.826 131.091  1.00  0.00     0.026 A 
ATOM     14  F1  LIG L   1     -15.178  16.572 130.217  1.00  0.00    -0.205 F 
ATOM     15 C10  LIG L   1     -15.028  15.443 130.982  1.00  0.00     0.130 A 
ATOM     16 C11  LIG L   1     -16.149  14.928 131.631  1.00  0.00     0.039 A 
ATOM     17 C12  LIG L   1     -16.042  13.781 132.396  1.00  0.00     0.003 A 
ATOM     18 C13  LIG L   1     -13.696  13.657 131.873  1.00  0.00     0.010 A 
ATOM     19 C14  LIG L   1     -14.806  13.156 132.529  1.00  0.00     0.001 A 
ENDBRANCH    1   13
BRANCH   11   20
ATOM     20 C15  LIG L   1     -11.310  13.629 129.259  1.00  0.00     0.039 A 
ATOM     21 C16  LIG L   1     -10.971  14.246 128.057  1.00  0.00     0.023 A 
ATOM     22 C17  LIG L   1     -11.272  12.228 129.327  1.00  0.00     0.023 A 
ATOM     23 C18  LIG L   1     -10.645  13.456 126.943  1.00  0.00     0.002 A 
ATOM     24 C19  LIG L   1     -10.978  11.433 128.220  1.00  0.00     0.002 A 
ATOM     25 C20  LIG L   1     -10.670  12.046 127.011  1.00  0.00     0.000 A 
ENDBRANCH   11   20
TORSDOF 2
ENDMDL
MODEL 8
REMARK VINA RESULT:   -18.761      1.862      8.986
REMARK ITER + INTRA:          -22.631
REMARK INTER:                 -21.980
REMARK INTRA:                  -0.651
REMARK UNBOUND:                 0.517
REMARK Flexibility Score: inf
REMARK Active torsions [ 2 ] -> [ 2 ]
ROOT
ATOM      1  C1  LIG L   1     -12.313  13.362 131.254  1.00  0.00     0.200 C 
ATOM      2  N1  LIG L   1     -11.567  12.229 130.641  1.00  0.00    -0.321 N 
ATOM      3  C2  LIG L   1     -11.336  12.245 129.277  1.00  0.00     0.041 A 
ATOM      4  C3  LIG L   1     -10.347  11.445 128.751  1.00  0.00     0.024 A 
ATOM      5  C4  LIG L   1     -10.094  11.433 127.376  1.00  0.00     0.002 A 
ATOM      6  C5  LIG L   1     -10.870  12.228 126.567  1.00  0.00     0.001 A 
ATOM      7  C6  LIG L   1     -11.882  13.049 127.099  1.00  0.00     0.015 A 
ATOM      8  C7  LIG L   1     -12.092  13.088 128.463  1.00  0.00     0.058 A 
ATOM      9  C8  LIG L   1     -13.166  13.798 129.006  1.00  0.00     0.254 C 
ATOM     10  O1  LIG L   1     -14.106  14.188 128.287  1.00  0.00    -0.270 OA
ATOM     11  N2  LIG L   1     -13.360  13.844 130.331  1.00  0.00    -0.244 N 
ATOM     12  H1  LIG L   1     -11.243  11.482 131.195  1.00  0.00     0.148 HD
ENDROOT
BRANCH    1   13
ATOM     13  C9  LIG L   1     -11.457  14.448 131.554  1.00  0.00     0.026 A 
ATOM     14  F1  LIG L   1     -12.811  14.923 133.328  1.00  0.00    -0.205 F 
ATOM     15 C10  LIG L   1     -11.777  15.231 132.655  1.00  0.00     0.130 A 
ATOM     16 C11  LIG L   1     -11.006  16.327 133.024  1.00  0.00     0.039 A 
ATOM     17 C12  LIG L   1     -10.328  14.832 130.800  1.00  0.00     0.010 A 
ATOM     18 C13  LIG L   1      -9.891  16.704 132.297  1.00  0.00     0.003 A 
ATOM     19 C14  LIG L   1      -9.534  15.931 131.193  1.00  0.00     0.001 A 
ENDBRANCH    1   13
BRANCH   11   20
ATOM     20 C15  LIG L   1     -14.535  14.266 130.823  1.00  0.00     0.039 A 
ATOM     21 C16  LIG L   1     -15.381  13.262 131.331  1.00  0.00     0.023 A 
ATOM     22 C17  LIG L   1     -14.973  15.578 130.836  1.00  0.00     0.023 A 
ATOM     23 C18  LIG L   1     -16.608  13.550 131.899  1.00  0.00     0.002 A 
ATOM     24 C19  LIG L   1     -16.242  15.873 131.389  1.00  0.00     0.002 A 
ATOM     25 C20  LIG L   1     -17.046  14.858 131.923  1.00  0.00     0.000 A 
ENDBRANCH   11   20
TORSDOF 2
REMARK Flexibility Score: inf
REMARK Active torsions [ 2 ] -> [ 2 ]
ROOT
ATOM      1  C1  LIG L   1     -18.723  18.350 128.758  1.00  0.00     0.200 C 
ATOM      2  N1  LIG L   1     -19.033  18.009 130.210  1.00  0.00    -0.321 N 
ATOM      3  C2  LIG L   1     -19.654  16.771 130.423  1.00  0.00     0.041 A 
ATOM      4  C3  LIG L   1     -20.550  16.598 131.451  1.00  0.00     0.024 A 
ATOM      5  C4  LIG L   1     -21.196  15.377 131.643  1.00  0.00     0.002 A 
ATOM      6  C5  LIG L   1     -20.932  14.354 130.773  1.00  0.00     0.001 A 
ATOM      7  C6  LIG L   1     -20.043  14.542 129.719  1.00  0.00     0.015 A 
ATOM      8  C7  LIG L   1     -19.442  15.769 129.496  1.00  0.00     0.058 A 
ATOM      9  C8  LIG L   1     -18.436  15.965 128.571  1.00  0.00     0.254 C 
ATOM     10  O1  LIG L   1     -17.706  15.023 128.310  1.00  0.00    -0.270 OA
ATOM     11  N2  LIG L   1     -17.930  17.182 128.287  1.00  0.00    -0.244 N 
ATOM     12  H1  LIG L   1     -18.812  18.619 130.951  1.00  0.00     0.148 HD
ENDROOT
BRANCH    1   13
ATOM     13  C9  LIG L   1     -19.830  18.551 127.845  1.00  0.00     0.026 A 
ATOM     14  F1  LIG L   1     -20.728  20.250 129.291  1.00  0.00    -0.205 F 
ATOM     15 C10  LIG L   1     -20.805  19.516 128.134  1.00  0.00     0.130 A 
ATOM     16 C11  LIG L   1     -21.863  19.764 127.262  1.00  0.00     0.039 A 
ATOM     17 C12  LIG L   1     -21.964  19.057 126.076  1.00  0.00     0.003 A 
ATOM     18 C13  LIG L   1     -19.958  17.850 126.630  1.00  0.00     0.010 A 
ATOM     19 C14  LIG L   1     -21.016  18.086 125.772  1.00  0.00     0.001 A 
ENDBRANCH    1   13
BRANCH   11   20
ATOM     20 C15  LIG L   1     -16.755  17.383 127.656  1.00  0.00     0.039 A 
ATOM     21 C16  LIG L   1     -15.607  17.734 128.363  1.00  0.00     0.023 A 
ATOM     22 C17  LIG L   1     -16.640  17.115 126.283  1.00  0.00     0.023 A 
ATOM     23 C18  LIG L   1     -14.385  17.852 127.683  1.00  0.00     0.002 A 
ATOM     24 C19  LIG L   1     -15.438  17.257 125.592  1.00  0.00     0.002 A 
ATOM     25 C20  LIG L   1     -14.298  17.639 126.290  1.00  0.00     0.000 A 
ENDBRANCH   11   20
TORSDOF 2
ENDMDL
MODEL 9
REMARK VINA RESULT:   -18.629      1.749      9.194
REMARK ITER + INTRA:          -22.469
REMARK INTER:                 -22.986
REMARK INTRA:                   0.517
REMARK UNBOUND:                 0.517
REMARK Flexibility Score: inf
REMARK Active torsions [ 2 ] -> [ 2 ]
ROOT
ATOM      1  C1  LIG L   1     -11.719  14.164 131.171  1.00  0.00     0.200 C 
ATOM      2  N1  LIG L   1     -11.176  14.482 132.520  1.00  0.00    -0.321 N 
ATOM      3  C2  LIG L   1     -10.271  15.521 132.645  1.00  0.00     0.041 A 
ATOM      4  C3  LIG L   1     -10.055  16.081 133.884  1.00  0.00     0.024 A 
ATOM      5  C4  LIG L   1      -9.142  17.128 134.045  1.00  0.00     0.002 A 
ATOM      6  C5  LIG L   1      -8.457  17.566 132.937  1.00  0.00     0.001 A 
ATOM      7  C6  LIG L   1      -8.674  16.997 131.668  1.00  0.00     0.015 A 
ATOM      8  C7  LIG L   1      -9.612  15.996 131.513  1.00  0.00     0.058 A 
ATOM      9  C8  LIG L   1      -9.760  15.333 130.292  1.00  0.00     0.254 C 
ATOM     10  O1  LIG L   1      -8.894  15.426 129.402  1.00  0.00    -0.270 OA
ATOM     11  N2  LIG L   1     -10.681  14.370 130.141  1.00  0.00    -0.244 N 
ATOM     12  H1  LIG L   1     -11.456  13.963 133.309  1.00  0.00     0.148 HD
ENDROOT
BRANCH    1   13
ATOM     13  C9  LIG L   1     -12.827  14.981 130.848  1.00  0.00     0.026 A 
ATOM     14  F1  LIG L   1     -14.139  13.535 132.028  1.00  0.00    -0.205 F 
ATOM     15 C10  LIG L   1     -14.071  14.594 131.327  1.00  0.00     0.130 A 
ATOM     16 C11  LIG L   1     -15.222  15.323 131.054  1.00  0.00     0.039 A 
ATOM     17 C12  LIG L   1     -12.782  16.138 130.040  1.00  0.00     0.010 A 
ATOM     18 C13  LIG L   1     -15.186  16.465 130.272  1.00  0.00     0.003 A 
ATOM     19 C14  LIG L   1     -13.950  16.890 129.786  1.00  0.00     0.001 A 
ENDBRANCH    1   13
BRANCH   11   20
ATOM     20 C15  LIG L   1     -10.621  13.545 129.084  1.00  0.00     0.039 A 
ATOM     21 C16  LIG L   1     -10.508  12.174 129.384  1.00  0.00     0.023 A 
ATOM     22 C17  LIG L   1     -10.632  13.940 127.758  1.00  0.00     0.023 A 
ATOM     23 C18  LIG L   1     -10.469  11.205 128.399  1.00  0.00     0.002 A 
ATOM     24 C19  LIG L   1     -10.562  12.952 126.748  1.00  0.00     0.002 A 
ATOM     25 C20  LIG L   1     -10.488  11.592 127.075  1.00  0.00     0.000 A 
ENDBRANCH   11   20
TORSDOF 2
REMARK Flexibility Score: inf
REMARK Active torsions [ 2 ] -> [ 2 ]
ROOT
ATOM      1  C1  LIG L   1     -18.642  18.379 129.039  1.00  0.00     0.200 C 
ATOM      2  N1  LIG L   1     -18.779  17.850 130.461  1.00  0.00    -0.321 N 
ATOM      3  C2  LIG L   1     -19.487  16.647 130.595  1.00  0.00     0.041 A 
ATOM      4  C3  LIG L   1     -20.242  16.395 131.715  1.00  0.00     0.024 A 
ATOM      5  C4  LIG L   1     -20.976  15.214 131.836  1.00  0.00     0.002 A 
ATOM      6  C5  LIG L   1     -20.941  14.316 130.805  1.00  0.00     0.001 A 
ATOM      7  C6  LIG L   1     -20.194  14.588 129.662  1.00  0.00     0.015 A 
ATOM      8  C7  LIG L   1     -19.509  15.782 129.519  1.00  0.00     0.058 A 
ATOM      9  C8  LIG L   1     -18.627  16.033 128.486  1.00  0.00     0.254 C 
ATOM     10  O1  LIG L   1     -18.041  15.085 127.991  1.00  0.00    -0.270 OA
ATOM     11  N2  LIG L   1     -18.045  17.234 128.297  1.00  0.00    -0.244 N 
ATOM     12  H1  LIG L   1     -18.396  18.322 131.235  1.00  0.00     0.148 HD
ENDROOT
BRANCH    1   13
ATOM     13  C9  LIG L   1     -19.840  18.802 128.342  1.00  0.00     0.026 A 
ATOM     14  F1  LIG L   1     -20.213  20.506 129.998  1.00  0.00    -0.205 F 
ATOM     15 C10  LIG L   1     -20.592  19.875 128.840  1.00  0.00     0.130 A 
ATOM     16 C11  LIG L   1     -21.729  20.335 128.176  1.00  0.00     0.039 A 
ATOM     17 C12  LIG L   1     -22.132  19.736 126.996  1.00  0.00     0.003 A 
ATOM     18 C13  LIG L   1     -20.273  18.215 127.137  1.00  0.00     0.010 A 
ATOM     19 C14  LIG L   1     -21.409  18.662 126.487  1.00  0.00     0.001 A 
ENDBRANCH    1   13
BRANCH   11   20
ATOM     20 C15  LIG L   1     -16.956  17.433 127.527  1.00  0.00     0.039 A 
ATOM     21 C16  LIG L   1     -16.269  18.644 127.547  1.00  0.00     0.023 A 
ATOM     22 C17  LIG L   1     -16.418  16.371 126.783  1.00  0.00     0.023 A 
ATOM     23 C18  LIG L   1     -15.092  18.784 126.796  1.00  0.00     0.002 A 
ATOM     24 C19  LIG L   1     -15.266  16.507 126.011  1.00  0.00     0.002 A 
ATOM     25 C20  LIG L   1     -14.597  17.725 126.005  1.00  0.00     0.000 A 
ENDBRANCH   11   20
TORSDOF 2
ENDMDL
