REMARK  8 active torsions:
REMARK  status: ('A' for Active; 'I' for Inactive)
REMARK    1  A    between atoms: C11_4828  and  A12_4831 
REMARK       I    between atoms: N1_4806  and  C9_4826 
REMARK    2  A    between atoms: C8_4824  and  C9_4826 
REMARK       I    between atoms: C35_4868  and  N36_4869 
REMARK    3  A    between atoms: N18_4841  and  S22_4848 
REMARK    4  A    between atoms: C8_4824  and  C11_4828 
REMARK       I    between atoms: N7_4822  and  C20_4846 
REMARK       I    between atoms: A17_4840  and  C35_4868 
REMARK    5  A    between atoms: N7_4822  and  C8_4824 
REMARK    6  A    between atoms: N18_4841  and  C19_4843 
REMARK    7  A    between atoms: S22_4848  and  A26_4853 
REMARK    8  A    between atoms: C19_4843  and  C20_4846 
ROOT
ATOM      1  C8  MID     1      32.710  14.342  22.327  1.00 12.67     0.164 C 
ENDROOT
BRANCH   1   2
ATOM      2  N7  MID     1      31.432  14.076  23.007  1.00 17.28    -0.337 N 
ATOM      3  H11 MID     1      30.593  13.997  22.470  1.00  0.00     0.164 HD
ATOM      4  C20 MID     1      31.357  13.878  24.346  1.00 19.97     0.254 C 
ATOM      5  O21 MID     1      32.343  13.957  25.088  1.00 22.60    -0.270 OA
BRANCH   4   6
ATOM      6  C19 MID     1      29.999  13.608  24.785  1.00 20.01     0.196 C 
BRANCH   6   7
ATOM      7  N18 MID     1      30.002  13.424  26.198  1.00 23.25    -0.290 N 
ATOM      8  H19 MID     1      30.729  13.877  26.718  1.00  0.00     0.174 HD
BRANCH   7   9
ATOM      9  S22 MID     1      29.437  12.014  26.802  1.00 24.09     0.261 S 
ATOM     10  O23 MID     1      28.674  11.347  25.774  1.00 25.99    -0.200 OA
ATOM     11  O24 MID     1      28.928  12.271  28.138  1.00 29.33    -0.200 OA
BRANCH   9  12
ATOM     12  A26 MID     1      30.856  11.006  27.018  1.00 19.26     0.103 A 
ATOM     13  A25 MID     1      30.841   9.779  26.364  1.00 19.50     0.013 A 
ATOM     14  A27 MID     1      31.920  11.408  27.767  1.00 15.97     0.013 A 
ATOM     15  A30 MID     1      31.898   8.917  26.467  1.00 19.62     0.001 A 
ATOM     16  A29 MID     1      33.000   9.266  27.256  1.00 18.24     0.000 A 
ATOM     17  A34 MID     1      34.090   8.367  27.365  1.00 19.55     0.000 A 
ATOM     18  A28 MID     1      33.034  10.543  27.869  1.00 17.09     0.001 A 
ATOM     19  A33 MID     1      35.192   8.739  28.076  1.00 20.84     0.000 A 
ATOM     20  A32 MID     1      35.229  10.020  28.705  1.00 22.06     0.000 A 
ATOM     21  A31 MID     1      34.167  10.913  28.603  1.00 19.05     0.000 A 
ENDBRANCH   9  12
ENDBRANCH   7   9
ENDBRANCH   6   7
ENDBRANCH   4   6
ENDBRANCH   1   2
BRANCH   1  22
ATOM     22  C9  MID     1      32.876  13.242  21.334  1.00 16.44     0.254 C 
ATOM     23  N1  MID     1      33.607  12.167  21.847  1.00 14.67    -0.319 N 
ATOM     24  O10 MID     1      32.443  13.256  20.177  1.00 20.52    -0.270 OA
ATOM     25  C6  MID     1      34.121  12.210  23.229  1.00 15.23     0.104 C 
ATOM     26  C2  MID     1      33.847  10.982  21.031  1.00 12.35     0.104 C 
ATOM     27  C5  MID     1      33.693  10.967  24.018  1.00 14.07     0.024 C 
ATOM     28  C4  MID     1      34.012   9.686  23.219  1.00 13.89     0.004 C 
ATOM     29  C3  MID     1      33.369   9.742  21.801  1.00 12.40     0.024 C 
ENDBRANCH   1  22
BRANCH   1  30
ATOM     30  C11 MID     1      32.632  15.671  21.590  1.00  6.47     0.058 C 
BRANCH  30  31
ATOM     31  A12 MID     1      32.636  16.760  22.572  1.00  6.00    -0.020 A 
ATOM     32  A14 MID     1      31.443  17.235  23.050  1.00  7.63    -0.004 A 
ATOM     33  A13 MID     1      33.821  17.247  23.054  1.00  7.87    -0.004 A 
ATOM     34  A16 MID     1      31.409  18.275  23.983  1.00  9.72     0.019 A 
ATOM     35  A17 MID     1      32.597  18.806  24.449  1.00  8.97     0.198 A 
ATOM     36  A15 MID     1      33.810  18.296  23.992  1.00  9.10     0.019 A 
ATOM     37  C35 MID     1      32.576  19.878  25.454  1.00  8.79     0.582 C 
ATOM     38  N36 MID     1      31.419  20.406  25.893  1.00  6.31    -0.254 N 
ATOM     39  N37 MID     1      33.665  20.623  25.684  1.00 11.59    -0.254 N 
ATOM     40  H29 MID     1      31.457  21.138  26.569  1.00  0.00     0.172 HD
ATOM     41  H30 MID     1      30.532  19.956  25.794  1.00  0.00     0.172 HD
ATOM     42  H31 MID     1      33.632  21.386  26.335  1.00  0.00     0.172 HD
ATOM     43  H32 MID     1      34.579  20.326  25.410  1.00  0.00     0.172 HD
ENDBRANCH  30  31
ENDBRANCH   1  30
TORSDOF 10
