ROOT
ATOM      1  C6  3TM     1      53.549  15.298  -3.742  1.00 15.17     0.190 C 
ATOM      2  C7  3TM     1      52.683  14.654  -4.808  1.00 28.50     0.197 C 
ATOM      3  O2  3TM     1      51.600  15.247  -5.125  1.00 18.84    -0.646 OA
ATOM      4  O3  3TM     1      53.146  13.624  -5.354  1.00 31.40    -0.646 OA
ATOM      5  C8  3TM     1      54.007  14.330  -2.660  1.00 10.69     0.077 C 
ATOM      6  N2  3TM     1      52.901  16.507  -3.237  1.00 12.72    -0.344 N 
ATOM      7  H8  3TM     1      51.983  16.338  -2.878  1.00  0.00     0.163 HD
ATOM      8  C2  3TM     1      53.560  17.643  -3.036  1.00 17.23     0.249 C 
ATOM      9  O1  3TM     1      54.771  17.732  -3.240  1.00 14.51    -0.271 OA
ATOM     10  C1  3TM     1      52.713  18.837  -2.527  1.00 24.24     0.278 C 
ATOM     11  N1  3TM     1      51.237  18.779  -2.669  1.00 12.67    -0.066 N 
ATOM     12  H21 3TM     1      50.991  18.104  -3.422  1.00  0.00     0.275 HD
ATOM     13  H19 3TM     1      50.854  19.721  -2.914  1.00  0.00     0.275 HD
ATOM     14  H20 3TM     1      50.806  18.306  -1.848  1.00  0.00     0.275 HD
ATOM     15  C3  3TM     1      53.259  19.396  -1.218  1.00 17.36     0.017 C 
ATOM     16  C4  3TM     1      53.431  18.328  -0.133  1.00 11.23     0.012 C 
ATOM     17  C5  3TM     1      54.499  20.289  -1.454  1.00 15.31     0.012 C 
ENDROOT
BRANCH   5   18
ATOM     18  A9  3TM     1      52.843  13.868  -1.903  1.00 18.04    -0.028 A 
ATOM     19  A11 3TM     1      52.129  12.650  -2.063  1.00 31.56    -0.002 A 
ATOM     20  A10 3TM     1      52.250  14.550  -0.906  1.00 24.51     0.096 A 
ATOM     21  A13 3TM     1      52.253  11.546  -2.920  1.00 50.41     0.014 A 
ATOM     22  A12 3TM     1      51.076  12.662  -1.127  1.00 31.16     0.042 A 
ATOM     23  A15 3TM     1      51.354  10.494  -2.824  1.00 44.98     0.001 A 
ATOM     24  A16 3TM     1      50.316  10.546  -1.884  1.00 50.59     0.002 A 
ATOM     25  A14 3TM     1      50.158  11.608  -1.015  1.00 43.23     0.030 A 
ATOM     26  N3  3TM     1      51.190  13.817  -0.425  1.00 22.83    -0.365 N 
ATOM     27  H13 3TM     1      50.581  14.099   0.290  1.00  0.00     0.165 HD
ENDBRANCH 5  18
TORSDOF 1
