1STP_BTN_A_300
  RCSB PDB01141517583D
Coordinates from PDB:1STP:A:300 Model:1 without hydrogens
 16 17  0  0  0  0            999 V2000
    9.0510    4.5760  -14.4590   C 0  0  0  0  0  0  0  0  0  0  0  0
    8.1470    5.3730  -14.1720   O 0  0  0  0  0  0  0  0  0  0  0  0
    8.6970    3.4980  -15.1320   O 0  0  0  0  0  0  0  0  0  0  0  0
   10.3210    4.4130  -13.7020   C 0  0  0  0  0  0  0  0  0  0  0  0
   10.2150    3.2470  -12.6580   C 0  0  0  0  0  0  0  0  0  0  0  0
   11.4870    2.9720  -11.9640   C 0  0  0  0  0  0  0  0  0  0  0  0
   11.6270    1.5580  -11.4020   C 0  0  0  0  0  0  0  0  0  0  0  0
   10.9230    1.0860  -10.1950   C 0  0  0  0  0  0  0  0  0  0  0  0
   10.8840    2.1030   -8.6620   S 0  0  0  0  0  0  0  0  0  0  0  0
   10.2990    0.6200   -7.7600   C 0  0  0  0  0  0  0  0  0  0  0  0
   11.1420   -0.5430   -8.2740   C 0  0  0  0  0  0  0  0  0  0  0  0
   12.4430   -0.6310   -7.6130   N 0  0  0  0  0  0  0  0  0  0  0  0
   13.4670   -0.4430   -8.4530   C 0  0  0  0  0  0  0  0  0  0  0  0
   14.6920   -0.4460   -8.2050   O 0  0  0  0  0  0  0  0  0  0  0  0
   12.9740   -0.2370   -9.6950   N 0  0  0  0  0  0  0  0  0  0  0  0
   11.5130   -0.2650   -9.7270   C 0  0  0  0  0  0  0  0  0  0  0  0
  1  2  2  0  0  0  0
  1  3  1  0  0  0  0
  1  4  1  0  0  0  0
  4  5  1  0  0  0  0
  5  6  1  0  0  0  0
  6  7  1  0  0  0  0
  7  8  1  0  0  0  0
  8  9  1  0  0  0  0
  8 16  1  0  0  0  0
  9 10  1  0  0  0  0
 10 11  1  0  0  0  0
 11 12  1  0  0  0  0
 11 16  1  0  0  0  0
 12 13  1  0  0  0  0
 13 14  2  0  0  0  0
 13 15  1  0  0  0  0
 15 16  1  0  0  0  0
A    1
C11
A    2
O11
A    3
O12
A    4
C10
A    5
C9
A    6
C8
A    7
C7
A    8
C2
A    9
S1
A   10
C6
A   11
C5
A   12
N1
A   13
C3
A   14
O3
A   15
N2
A   16
C4
M  END
>  <InstanceId>
1STP_BTN_A_300

>  <ChemCompId>
BTN

>  <PdbId>
1STP

>  <ChainId>
A

>  <ResidueNumber>
300

>  <InsertionCode>


>  <Model>
1

>  <AltIds>


>  <MissingHeavyAtoms>
0

>  <ObservedFormula>
C10 N2 O3 S

>  <Name>
BIOTIN

>  <SystematicName>
5-[(3aS,4S,6aR)-2-oxidanylidene-1,3,3a,4,6,6a-hexahydrothieno[3,4-d]imidazol-4-yl]pentanoic acid

>  <Synonyms>


>  <Type>
NON-POLYMER

>  <Formula>
C10 H16 N2 O3 S

>  <MolecularWeight>
244.311

>  <ModifiedDate>
2014-04-29

>  <Parent>


>  <OneLetterCode>


>  <SubcomponentList>


>  <AmbiguousFlag>
N

>  <InChI>
InChI=1S/C10H16N2O3S/c13-8(14)4-2-1-3-7-9-6(5-16-7)11-10(15)12-9/h6-7,9H,1-5H2,(H,13,14)(H2,11,12,15)/t6-,7-,9-/m0/s1

>  <InChIKey>
YBJHBAHKTGYVGT-ZKWXMUAHSA-N

>  <SMILES>
C1[C@H]2[C@@H]([C@@H](S1)CCCCC(=O)O)NC(=O)N2

$$$$
