MODEL 1
REMARK VINA RESULT:   -15.407      0.000      0.000
REMARK ITER + INTRA:          -19.363
REMARK INTER:                 -17.495
REMARK INTRA:                  -1.868
REMARK CONF_INDEPENDENT:        2.088
REMARK UNBOUND:                 1.868
REMARK  7 active torsions:
REMARK  status: ('A' for Active; 'I' for Inactive)
REMARK    1  A    between atoms: C5_3  and  C7_7 
REMARK    2  A    between atoms: C9_11  and  N13_13 
REMARK    3  A    between atoms: N13_13  and  C14_15 
REMARK    4  A    between atoms: C16_19  and  N21_21 
REMARK       I    between atoms: N21_21  and  C22_23 
REMARK    5  A    between atoms: C22_23  and  C23_24 
REMARK    6  A    between atoms: C27_27  and  C46_30 
REMARK    7  A    between atoms: C46_30  and  N48_31 
ROOT
HETATM    1  C14 STI A 201      15.759  54.246  12.136  1.00 32.92     0.057 A 
HETATM    2  C19 STI A 201      16.865  54.101  11.183  1.00 28.09    -0.035 A 
HETATM    3  C18 STI A 201      17.846  53.083  11.431  1.00 26.77     0.011 A 
HETATM    4  C17 STI A 201      17.740  52.227  12.587  1.00 25.91     0.030 A 
HETATM    5  C16 STI A 201      16.665  52.362  13.512  1.00 30.34     0.037 A 
HETATM    6  C15 STI A 201      15.669  53.394  13.267  1.00 29.33     0.060 A 
HETATM    7  C20 STI A 201      17.025  54.986   9.925  1.00 26.25     0.050 C 
ENDROOT
BRANCH   5   8
HETATM    8  N21 STI A 201      16.622  51.463  14.639  1.00 31.22    -0.323 N 
HETATM    9  C22 STI A 201      15.655  51.382  15.628  1.00 33.27     0.256 C 
HETATM   10  O29 STI A 201      14.784  52.219  15.813  1.00 38.89    -0.267 OA
HETATM   11  H21 STI A 201      17.398  50.806  14.717  1.00  0.00     0.169 HD
BRANCH   9  12
HETATM   12  C23 STI A 201      15.665  50.209  16.554  1.00 31.14     0.032 A 
HETATM   13  C25 STI A 201      16.881  49.420  16.766  1.00 34.22     0.017 A 
HETATM   14  C26 STI A 201      16.860  48.283  17.652  1.00 31.64     0.010 A 
HETATM   15  C27 STI A 201      15.617  47.930  18.334  1.00 38.05    -0.030 A 
HETATM   16  C28 STI A 201      14.427  48.733  18.109  1.00 29.43     0.010 A 
HETATM   17  C29 STI A 201      14.444  49.848  17.240  1.00 34.20     0.017 A 
BRANCH  15  18
HETATM   18  C46 STI A 201      15.497  46.720  19.280  1.00 35.44     0.311 C 
BRANCH  18  19
HETATM   19  N48 STI A 201      16.619  46.486  20.236  1.00 46.28     0.095 N 
HETATM   20  C53 STI A 201      16.752  47.645  21.193  1.00 45.06     0.300 C 
HETATM   21  C52 STI A 201      17.929  47.431  22.185  1.00 46.67     0.264 C 
HETATM   22  N51 STI A 201      17.761  46.126  22.950  1.00 48.74    -0.072 N 
HETATM   23  H51 STI A 201      16.809  46.192  23.526  1.00  0.00     0.279 HD
HETATM   24  C50 STI A 201      17.643  44.938  21.994  1.00 45.31     0.264 C 
HETATM   25  C54 STI A 201      18.847  45.877  23.910  1.00 49.83     0.269 C 
HETATM   26  C49 STI A 201      16.448  45.179  21.015  1.00 44.33     0.300 C 
ENDBRANCH  18  19
ENDBRANCH  15  18
ENDBRANCH   9  12
ENDBRANCH   5   8
BRANCH   1  27
HETATM   27  N13 STI A 201      14.775  55.220  11.950  1.00 32.90    -0.188 N 
HETATM   28  H13 STI A 201      13.947  55.001  11.396  1.00  0.00     0.184 HD
BRANCH  27  29
HETATM   29  C9  STI A 201      14.913  56.482  12.508  1.00 33.83     0.727 A 
HETATM   30  N10 STI A 201      16.055  56.862  13.187  1.00 32.08    -0.075 NA
HETATM   31  C11 STI A 201      16.174  58.124  13.727  1.00 35.42     0.139 A 
HETATM   32  C12 STI A 201      15.120  59.056  13.592  1.00 30.85     0.053 A 
HETATM   33  C7  STI A 201      13.950  58.629  12.880  1.00 33.05     0.089 A 
HETATM   34  N8  STI A 201      13.892  57.352  12.366  1.00 33.44    -0.062 NA
BRANCH  33  35
HETATM   35  C5  STI A 201      12.754  59.499  12.651  1.00 33.74     0.011 A 
HETATM   36  C4  STI A 201      11.620  58.960  11.916  1.00 31.40     0.130 A 
HETATM   37  N3  STI A 201      10.498  59.752  11.693  1.00 33.76    -0.272 NA
HETATM   38  C2  STI A 201      10.406  61.075  12.151  1.00 35.46     0.116 A 
HETATM   39  C1  STI A 201      11.493  61.672  12.881  1.00 35.17     0.020 A 
HETATM   40  C6  STI A 201      12.671  60.873  13.130  1.00 32.96     0.017 A 
ENDBRANCH  33  35
ENDBRANCH  27  29
ENDBRANCH   1  27
TORSDOF 7
BEGIN_RES THR A 315
REMARK  2 active torsions:
REMARK  status: ('A' for Active; 'I' for Inactive)
REMARK    1  A    between atoms: CA   and  CB  
REMARK    2  A    between atoms: CB   and  OG1 
ROOT
ATOM      1  CA  THR A 315      13.079  52.503   8.093  1.00 45.40     0.205 C 
ENDROOT
BRANCH   1   2
ATOM      2  CB  THR A 315      13.429  52.900   9.553  1.00 45.76     0.146 C 
ATOM      3  CG2 THR A 315      14.218  51.847  10.248  1.00 42.73     0.042 C 
BRANCH   2   4
ATOM      4  OG1 THR A 315      14.138  54.145   9.548  1.00 47.20    -0.393 OA
ATOM      5  HG1 THR A 315      14.467  54.277   8.786  1.00 47.20     0.210 HD
ENDBRANCH   2   4
ENDBRANCH   1   2
END_RES THR A 315
ENDMDL
MODEL 2
REMARK VINA RESULT:   -14.954      1.164      1.803
REMARK ITER + INTRA:          -18.377
REMARK INTER:                 -17.043
REMARK INTRA:                  -1.334
REMARK CONF_INDEPENDENT:        2.088
REMARK UNBOUND:                 1.334
REMARK  7 active torsions:
REMARK  status: ('A' for Active; 'I' for Inactive)
REMARK    1  A    between atoms: C5_3  and  C7_7 
REMARK    2  A    between atoms: C9_11  and  N13_13 
REMARK    3  A    between atoms: N13_13  and  C14_15 
REMARK    4  A    between atoms: C16_19  and  N21_21 
REMARK       I    between atoms: N21_21  and  C22_23 
REMARK    5  A    between atoms: C22_23  and  C23_24 
REMARK    6  A    between atoms: C27_27  and  C46_30 
REMARK    7  A    between atoms: C46_30  and  N48_31 
ROOT
HETATM    1  C14 STI A 201      16.249  55.065  12.608  1.00 32.92     0.057 A 
HETATM    2  C19 STI A 201      16.893  54.752  11.326  1.00 28.09    -0.035 A 
HETATM    3  C18 STI A 201      17.499  53.461  11.170  1.00 26.77     0.011 A 
HETATM    4  C17 STI A 201      17.472  52.501  12.244  1.00 25.91     0.030 A 
HETATM    5  C16 STI A 201      16.845  52.800  13.489  1.00 30.34     0.037 A 
HETATM    6  C15 STI A 201      16.231  54.108  13.655  1.00 29.33     0.060 A 
HETATM    7  C20 STI A 201      16.946  55.741  10.138  1.00 26.25     0.050 C 
ENDROOT
BRANCH   5   8
HETATM    8  N21 STI A 201      16.850  51.784  14.513  1.00 31.22    -0.323 N 
HETATM    9  C22 STI A 201      15.915  51.580  15.514  1.00 33.27     0.256 C 
HETATM   10  O29 STI A 201      15.037  52.375  15.813  1.00 38.89    -0.267 OA
HETATM   11  H21 STI A 201      17.639  51.138  14.498  1.00  0.00     0.169 HD
BRANCH   9  12
HETATM   12  C23 STI A 201      15.972  50.315  16.308  1.00 31.14     0.032 A 
HETATM   13  C25 STI A 201      14.841  49.883  17.132  1.00 34.22     0.017 A 
HETATM   14  C26 STI A 201      14.929  48.667  17.902  1.00 31.64     0.010 A 
HETATM   15  C27 STI A 201      16.154  47.874  17.849  1.00 38.05    -0.030 A 
HETATM   16  C28 STI A 201      17.260  48.323  17.020  1.00 29.43     0.010 A 
HETATM   17  C29 STI A 201      17.177  49.514  16.265  1.00 34.20     0.017 A 
BRANCH  15  18
HETATM   18  C46 STI A 201      16.344  46.574  18.654  1.00 35.44     0.311 C 
BRANCH  18  19
HETATM   19  N48 STI A 201      17.219  46.640  19.862  1.00 46.28     0.095 N 
HETATM   20  C53 STI A 201      18.271  47.710  19.698  1.00 45.06     0.300 C 
HETATM   21  C52 STI A 201      19.206  47.781  20.938  1.00 46.67     0.264 C 
HETATM   22  N51 STI A 201      18.403  48.015  22.209  1.00 48.74    -0.072 N 
HETATM   23  H51 STI A 201      17.872  48.989  22.099  1.00  0.00     0.279 HD
HETATM   24  C50 STI A 201      17.343  46.928  22.399  1.00 45.31     0.264 C 
HETATM   25  C54 STI A 201      19.242  48.098  23.414  1.00 49.83     0.269 C 
HETATM   26  C49 STI A 201      16.414  46.885  21.142  1.00 44.33     0.300 C 
ENDBRANCH  18  19
ENDBRANCH  15  18
ENDBRANCH   9  12
ENDBRANCH   5   8
BRANCH   1  27
HETATM   27  N13 STI A 201      15.644  56.306  12.822  1.00 32.90    -0.188 N 
HETATM   28  H13 STI A 201      16.180  57.061  13.249  1.00  0.00     0.184 HD
BRANCH  27  29
HETATM   29  C9  STI A 201      14.323  56.522  12.461  1.00 33.83     0.727 A 
HETATM   30  N10 STI A 201      13.498  55.491  12.050  1.00 32.08    -0.075 NA
HETATM   31  C11 STI A 201      12.186  55.727  11.702  1.00 35.42     0.139 A 
HETATM   32  C12 STI A 201      11.660  57.037  11.765  1.00 30.85     0.053 A 
HETATM   33  C7  STI A 201      12.543  58.082  12.197  1.00 33.05     0.089 A 
HETATM   34  N8  STI A 201      13.846  57.782  12.527  1.00 33.44    -0.062 NA
BRANCH  33  35
HETATM   35  C5  STI A 201      12.134  59.517  12.318  1.00 33.74     0.011 A 
HETATM   36  C4  STI A 201      10.823  59.920  11.833  1.00 31.40     0.130 A 
HETATM   37  N3  STI A 201      10.423  61.248  11.936  1.00 33.76    -0.272 NA
HETATM   38  C2  STI A 201      11.241  62.240  12.498  1.00 35.46     0.116 A 
HETATM   39  C1  STI A 201      12.551  61.911  12.994  1.00 35.17     0.020 A 
HETATM   40  C6  STI A 201      12.994  60.539  12.901  1.00 32.96     0.017 A 
ENDBRANCH  33  35
ENDBRANCH  27  29
ENDBRANCH   1  27
TORSDOF 7
BEGIN_RES THR A 315
REMARK  2 active torsions:
REMARK  status: ('A' for Active; 'I' for Inactive)
REMARK    1  A    between atoms: CA   and  CB  
REMARK    2  A    between atoms: CB   and  OG1 
ROOT
ATOM      1  CA  THR A 315      13.079  52.503   8.093  1.00 45.40     0.205 C 
ENDROOT
BRANCH   1   2
ATOM      2  CB  THR A 315      13.429  52.900   9.553  1.00 45.76     0.146 C 
ATOM      3  CG2 THR A 315      14.091  51.792  10.293  1.00 42.73     0.042 C 
BRANCH   2   4
ATOM      4  OG1 THR A 315      14.259  54.068   9.540  1.00 47.20    -0.393 OA
ATOM      5  HG1 THR A 315      14.014  54.592  10.148  1.00 47.20     0.210 HD
ENDBRANCH   2   4
ENDBRANCH   1   2
END_RES THR A 315
ENDMDL
MODEL 3
REMARK VINA RESULT:   -13.916      1.112      1.744
REMARK ITER + INTRA:          -17.581
REMARK INTER:                 -16.004
REMARK INTRA:                  -1.577
REMARK CONF_INDEPENDENT:        2.088
REMARK UNBOUND:                 1.577
REMARK  7 active torsions:
REMARK  status: ('A' for Active; 'I' for Inactive)
REMARK    1  A    between atoms: C5_3  and  C7_7 
REMARK    2  A    between atoms: C9_11  and  N13_13 
REMARK    3  A    between atoms: N13_13  and  C14_15 
REMARK    4  A    between atoms: C16_19  and  N21_21 
REMARK       I    between atoms: N21_21  and  C22_23 
REMARK    5  A    between atoms: C22_23  and  C23_24 
REMARK    6  A    between atoms: C27_27  and  C46_30 
REMARK    7  A    between atoms: C46_30  and  N48_31 
ROOT
HETATM    1  C14 STI A 201      15.467  53.663  12.939  1.00 32.92     0.057 A 
HETATM    2  C19 STI A 201      16.782  53.327  12.380  1.00 28.09    -0.035 A 
HETATM    3  C18 STI A 201      17.532  52.272  12.999  1.00 26.77     0.011 A 
HETATM    4  C17 STI A 201      17.002  51.563  14.137  1.00 25.91     0.030 A 
HETATM    5  C16 STI A 201      15.724  51.885  14.681  1.00 30.34     0.037 A 
HETATM    6  C15 STI A 201      14.960  52.956  14.059  1.00 29.33     0.060 A 
HETATM    7  C20 STI A 201      17.396  54.048  11.157  1.00 26.25     0.050 C 
ENDROOT
BRANCH   5   8
HETATM    8  N21 STI A 201      15.258  51.126  15.814  1.00 31.22    -0.323 N 
HETATM    9  C22 STI A 201      14.457  49.996  15.811  1.00 33.27     0.256 C 
HETATM   10  O29 STI A 201      13.841  49.587  14.838  1.00 38.89    -0.267 OA
HETATM   11  H21 STI A 201      15.553  51.463  16.731  1.00  0.00     0.169 HD
BRANCH   9  12
HETATM   12  C23 STI A 201      14.307  49.213  17.076  1.00 31.14     0.032 A 
HETATM   13  C25 STI A 201      13.234  49.508  18.029  1.00 34.22     0.017 A 
HETATM   14  C26 STI A 201      13.123  48.749  19.250  1.00 31.64     0.010 A 
HETATM   15  C27 STI A 201      14.087  47.687  19.524  1.00 38.05    -0.030 A 
HETATM   16  C28 STI A 201      15.139  47.413  18.558  1.00 29.43     0.010 A 
HETATM   17  C29 STI A 201      15.252  48.155  17.361  1.00 34.20     0.017 A 
BRANCH  15  18
HETATM   18  C46 STI A 201      14.057  46.841  20.810  1.00 35.44     0.311 C 
BRANCH  18  19
HETATM   19  N48 STI A 201      15.356  46.620  21.514  1.00 46.28     0.095 N 
HETATM   20  C53 STI A 201      16.052  45.397  20.970  1.00 45.06     0.300 C 
HETATM   21  C52 STI A 201      17.398  45.137  21.704  1.00 46.67     0.264 C 
HETATM   22  N51 STI A 201      18.309  46.353  21.611  1.00 48.74    -0.072 N 
HETATM   23  H51 STI A 201      18.514  46.540  20.532  1.00  0.00     0.279 HD
HETATM   24  C50 STI A 201      17.623  47.598  22.175  1.00 45.31     0.264 C 
HETATM   25  C54 STI A 201      19.601  46.157  22.285  1.00 49.83     0.269 C 
HETATM   26  C49 STI A 201      16.278  47.839  21.415  1.00 44.33     0.300 C 
ENDBRANCH  18  19
ENDBRANCH  15  18
ENDBRANCH   9  12
ENDBRANCH   5   8
BRANCH   1  27
HETATM   27  N13 STI A 201      14.691  54.682  12.381  1.00 32.90    -0.188 N 
HETATM   28  H13 STI A 201      13.977  54.451  11.691  1.00  0.00     0.184 HD
BRANCH  27  29
HETATM   29  C9  STI A 201      14.882  56.003  12.755  1.00 33.83     0.727 A 
HETATM   30  N10 STI A 201      16.081  56.451  13.279  1.00 32.08    -0.075 NA
HETATM   31  C11 STI A 201      16.251  57.771  13.636  1.00 35.42     0.139 A 
HETATM   32  C12 STI A 201      15.193  58.694  13.470  1.00 30.85     0.053 A 
HETATM   33  C7  STI A 201      13.965  58.195  12.923  1.00 33.05     0.089 A 
HETATM   34  N8  STI A 201      13.856  56.864  12.588  1.00 33.44    -0.062 NA
BRANCH  33  35
HETATM   35  C5  STI A 201      12.757  59.048  12.684  1.00 33.74     0.011 A 
HETATM   36  C4  STI A 201      11.834  58.679  11.621  1.00 31.40     0.130 A 
HETATM   37  N3  STI A 201      10.705  59.457  11.383  1.00 33.76    -0.272 NA
HETATM   38  C2  STI A 201      10.407  60.604  12.134  1.00 35.46     0.116 A 
HETATM   39  C1  STI A 201      11.280  61.027  13.197  1.00 35.17     0.020 A 
HETATM   40  C6  STI A 201      12.460  60.239  13.469  1.00 32.96     0.017 A 
ENDBRANCH  33  35
ENDBRANCH  27  29
ENDBRANCH   1  27
TORSDOF 7
BEGIN_RES THR A 315
REMARK  2 active torsions:
REMARK  status: ('A' for Active; 'I' for Inactive)
REMARK    1  A    between atoms: CA   and  CB  
REMARK    2  A    between atoms: CB   and  OG1 
ROOT
ATOM      1  CA  THR A 315      13.079  52.503   8.093  1.00 45.40     0.205 C 
ENDROOT
BRANCH   1   2
ATOM      2  CB  THR A 315      13.429  52.900   9.553  1.00 45.76     0.146 C 
ATOM      3  CG2 THR A 315      14.204  51.840  10.253  1.00 42.73     0.042 C 
BRANCH   2   4
ATOM      4  OG1 THR A 315      14.152  54.137   9.547  1.00 47.20    -0.393 OA
ATOM      5  HG1 THR A 315      14.908  54.017   9.201  1.00 47.20     0.210 HD
ENDBRANCH   2   4
ENDBRANCH   1   2
END_RES THR A 315
ENDMDL
MODEL 4
REMARK VINA RESULT:   -13.392      3.975      6.038
REMARK ITER + INTRA:          -16.930
REMARK INTER:                 -15.480
REMARK INTRA:                  -1.450
REMARK CONF_INDEPENDENT:        2.088
REMARK UNBOUND:                 1.450
REMARK  7 active torsions:
REMARK  status: ('A' for Active; 'I' for Inactive)
REMARK    1  A    between atoms: C5_3  and  C7_7 
REMARK    2  A    between atoms: C9_11  and  N13_13 
REMARK    3  A    between atoms: N13_13  and  C14_15 
REMARK    4  A    between atoms: C16_19  and  N21_21 
REMARK       I    between atoms: N21_21  and  C22_23 
REMARK    5  A    between atoms: C22_23  and  C23_24 
REMARK    6  A    between atoms: C27_27  and  C46_30 
REMARK    7  A    between atoms: C46_30  and  N48_31 
ROOT
HETATM    1  C14 STI A 201      17.240  55.847  14.302  1.00 32.92     0.057 A 
HETATM    2  C19 STI A 201      18.594  55.874  14.866  1.00 28.09    -0.035 A 
HETATM    3  C18 STI A 201      19.142  54.649  15.375  1.00 26.77     0.011 A 
HETATM    4  C17 STI A 201      18.378  53.427  15.328  1.00 25.91     0.030 A 
HETATM    5  C16 STI A 201      17.063  53.396  14.777  1.00 30.34     0.037 A 
HETATM    6  C15 STI A 201      16.502  54.636  14.263  1.00 29.33     0.060 A 
HETATM    7  C20 STI A 201      19.461  57.153  14.936  1.00 26.25     0.050 C 
ENDROOT
BRANCH   5   8
HETATM    8  N21 STI A 201      16.365  52.135  14.757  1.00 31.22    -0.323 N 
HETATM    9  C22 STI A 201      15.074  51.869  15.182  1.00 33.27     0.256 C 
HETATM   10  O29 STI A 201      14.393  52.637  15.845  1.00 38.89    -0.267 OA
HETATM   11  H21 STI A 201      16.886  51.341  14.384  1.00  0.00     0.169 HD
BRANCH   9  12
HETATM   12  C23 STI A 201      14.454  50.555  14.831  1.00 31.14     0.032 A 
HETATM   13  C25 STI A 201      14.165  49.553  15.860  1.00 34.22     0.017 A 
HETATM   14  C26 STI A 201      13.583  48.286  15.492  1.00 31.64     0.010 A 
HETATM   15  C27 STI A 201      13.284  48.016  14.088  1.00 38.05    -0.030 A 
HETATM   16  C28 STI A 201      13.577  49.030  13.089  1.00 29.43     0.010 A 
HETATM   17  C29 STI A 201      14.148  50.272  13.445  1.00 34.20     0.017 A 
BRANCH  15  18
HETATM   18  C46 STI A 201      12.682  46.684  13.602  1.00 35.44     0.311 C 
BRANCH  18  19
HETATM   19  N48 STI A 201      11.381  46.748  12.872  1.00 46.28     0.095 N 
HETATM   20  C53 STI A 201      11.354  45.740  11.749  1.00 45.06     0.300 C 
HETATM   21  C52 STI A 201      10.015  45.805  10.962  1.00 46.67     0.264 C 
HETATM   22  N51 STI A 201       8.829  45.595  11.893  1.00 48.74    -0.072 N 
HETATM   23  H51 STI A 201       8.933  44.584  12.350  1.00  0.00     0.279 HD
HETATM   24  C50 STI A 201       8.833  46.620  13.028  1.00 45.31     0.264 C 
HETATM   25  C54 STI A 201       7.535  45.640  11.197  1.00 49.83     0.269 C 
HETATM   26  C49 STI A 201      10.187  46.528  13.805  1.00 44.33     0.300 C 
ENDBRANCH  18  19
ENDBRANCH  15  18
ENDBRANCH   9  12
ENDBRANCH   5   8
BRANCH   1  27
HETATM   27  N13 STI A 201      16.652  57.007  13.794  1.00 32.90    -0.188 N 
HETATM   28  H13 STI A 201      17.115  57.906  13.927  1.00  0.00     0.184 HD
BRANCH  27  29
HETATM   29  C9  STI A 201      15.447  56.951  13.111  1.00 33.83     0.727 A 
HETATM   30  N10 STI A 201      15.040  55.816  12.434  1.00 32.08    -0.075 NA
HETATM   31  C11 STI A 201      13.834  55.780  11.769  1.00 35.42     0.139 A 
HETATM   32  C12 STI A 201      12.988  56.911  11.770  1.00 30.85     0.053 A 
HETATM   33  C7  STI A 201      13.440  58.071  12.484  1.00 33.05     0.089 A 
HETATM   34  N8  STI A 201      14.658  58.045  13.126  1.00 33.44    -0.062 NA
BRANCH  33  35
HETATM   35  C5  STI A 201      12.657  59.343  12.580  1.00 33.74     0.011 A 
HETATM   36  C4  STI A 201      11.326  59.398  11.996  1.00 31.40     0.130 A 
HETATM   37  N3  STI A 201      10.581  60.570  12.075  1.00 33.76    -0.272 NA
HETATM   38  C2  STI A 201      11.062  61.728  12.705  1.00 35.46     0.116 A 
HETATM   39  C1  STI A 201      12.372  61.744  13.301  1.00 35.17     0.020 A 
HETATM   40  C6  STI A 201      13.168  60.540  13.236  1.00 32.96     0.017 A 
ENDBRANCH  33  35
ENDBRANCH  27  29
ENDBRANCH   1  27
TORSDOF 7
BEGIN_RES THR A 315
REMARK  2 active torsions:
REMARK  status: ('A' for Active; 'I' for Inactive)
REMARK    1  A    between atoms: CA   and  CB  
REMARK    2  A    between atoms: CB   and  OG1 
ROOT
ATOM      1  CA  THR A 315      13.079  52.503   8.093  1.00 45.40     0.205 C 
ENDROOT
BRANCH   1   2
ATOM      2  CB  THR A 315      13.429  52.900   9.553  1.00 45.76     0.146 C 
ATOM      3  CG2 THR A 315      14.023  51.769  10.316  1.00 42.73     0.042 C 
BRANCH   2   4
ATOM      4  OG1 THR A 315      14.318  54.023   9.538  1.00 47.20    -0.393 OA
ATOM      5  HG1 THR A 315      14.211  54.456   8.826  1.00 47.20     0.210 HD
ENDBRANCH   2   4
ENDBRANCH   1   2
END_RES THR A 315
ENDMDL
MODEL 5
REMARK VINA RESULT:   -13.077      1.480      2.166
REMARK ITER + INTRA:          -16.509
REMARK INTER:                 -15.165
REMARK INTRA:                  -1.343
REMARK CONF_INDEPENDENT:        2.088
REMARK UNBOUND:                 1.343
REMARK  7 active torsions:
REMARK  status: ('A' for Active; 'I' for Inactive)
REMARK    1  A    between atoms: C5_3  and  C7_7 
REMARK    2  A    between atoms: C9_11  and  N13_13 
REMARK    3  A    between atoms: N13_13  and  C14_15 
REMARK    4  A    between atoms: C16_19  and  N21_21 
REMARK       I    between atoms: N21_21  and  C22_23 
REMARK    5  A    between atoms: C22_23  and  C23_24 
REMARK    6  A    between atoms: C27_27  and  C46_30 
REMARK    7  A    between atoms: C46_30  and  N48_31 
ROOT
HETATM    1  C14 STI A 201      16.349  55.108  12.886  1.00 32.92     0.057 A 
HETATM    2  C19 STI A 201      16.900  54.647  11.605  1.00 28.09    -0.035 A 
HETATM    3  C18 STI A 201      17.531  53.358  11.563  1.00 26.77     0.011 A 
HETATM    4  C17 STI A 201      17.615  52.542  12.749  1.00 25.91     0.030 A 
HETATM    5  C16 STI A 201      17.078  52.985  13.993  1.00 30.34     0.037 A 
HETATM    6  C15 STI A 201      16.440  54.292  14.042  1.00 29.33     0.060 A 
HETATM    7  C20 STI A 201      16.832  55.476  10.302  1.00 26.25     0.050 C 
ENDROOT
BRANCH   5   8
HETATM    8  N21 STI A 201      17.193  52.109  15.132  1.00 31.22    -0.323 N 
HETATM    9  C22 STI A 201      16.443  50.980  15.417  1.00 33.27     0.256 C 
HETATM   10  O29 STI A 201      15.412  50.671  14.839  1.00 38.89    -0.267 OA
HETATM   11  H21 STI A 201      17.915  52.351  15.811  1.00  0.00     0.169 HD
BRANCH   9  12
HETATM   12  C23 STI A 201      16.897  50.069  16.512  1.00 31.14     0.032 A 
HETATM   13  C25 STI A 201      16.172  48.835  16.824  1.00 34.22     0.017 A 
HETATM   14  C26 STI A 201      16.621  47.983  17.896  1.00 31.64     0.010 A 
HETATM   15  C27 STI A 201      17.804  48.363  18.665  1.00 38.05    -0.030 A 
HETATM   16  C28 STI A 201      18.507  49.591  18.332  1.00 29.43     0.010 A 
HETATM   17  C29 STI A 201      18.069  50.428  17.282  1.00 34.20     0.017 A 
BRANCH  15  18
HETATM   18  C46 STI A 201      18.342  47.526  19.840  1.00 35.44     0.311 C 
BRANCH  18  19
HETATM   19  N48 STI A 201      17.338  46.846  20.712  1.00 46.28     0.095 N 
HETATM   20  C53 STI A 201      16.069  47.659  20.792  1.00 45.06     0.300 C 
HETATM   21  C52 STI A 201      15.018  46.978  21.713  1.00 46.67     0.264 C 
HETATM   22  N51 STI A 201      14.715  45.565  21.236  1.00 48.74    -0.072 N 
HETATM   23  H51 STI A 201      14.300  45.638  20.204  1.00  0.00     0.279 HD
HETATM   24  C50 STI A 201      15.990  44.723  21.166  1.00 45.31     0.264 C 
HETATM   25  C54 STI A 201      13.718  44.877  22.070  1.00 49.83     0.269 C 
HETATM   26  C49 STI A 201      17.025  45.427  20.229  1.00 44.33     0.300 C 
ENDBRANCH  18  19
ENDBRANCH  15  18
ENDBRANCH   9  12
ENDBRANCH   5   8
BRANCH   1  27
HETATM   27  N13 STI A 201      15.726  56.353  12.990  1.00 32.90    -0.188 N 
HETATM   28  H13 STI A 201      16.233  57.138  13.397  1.00  0.00     0.184 HD
BRANCH  27  29
HETATM   29  C9  STI A 201      14.425  56.534  12.546  1.00 33.83     0.727 A 
HETATM   30  N10 STI A 201      13.661  55.485  12.068  1.00 32.08    -0.075 NA
HETATM   31  C11 STI A 201      12.367  55.686  11.639  1.00 35.42     0.139 A 
HETATM   32  C12 STI A 201      11.797  56.979  11.684  1.00 30.85     0.053 A 
HETATM   33  C7  STI A 201      12.617  58.043  12.186  1.00 33.05     0.089 A 
HETATM   34  N8  STI A 201      13.904  57.778  12.597  1.00 33.44    -0.062 NA
BRANCH  33  35
HETATM   35  C5  STI A 201      12.156  59.463  12.299  1.00 33.74     0.011 A 
HETATM   36  C4  STI A 201      10.853  59.826  11.763  1.00 31.40     0.130 A 
HETATM   37  N3  STI A 201      10.405  61.140  11.858  1.00 33.76    -0.272 NA
HETATM   38  C2  STI A 201      11.166  62.154  12.458  1.00 35.46     0.116 A 
HETATM   39  C1  STI A 201      12.466  61.865  13.005  1.00 35.17     0.020 A 
HETATM   40  C6  STI A 201      12.957  60.509  12.923  1.00 32.96     0.017 A 
ENDBRANCH  33  35
ENDBRANCH  27  29
ENDBRANCH   1  27
TORSDOF 7
BEGIN_RES THR A 315
REMARK  2 active torsions:
REMARK  status: ('A' for Active; 'I' for Inactive)
REMARK    1  A    between atoms: CA   and  CB  
REMARK    2  A    between atoms: CB   and  OG1 
ROOT
ATOM      1  CA  THR A 315      13.079  52.503   8.093  1.00 45.40     0.205 C 
ENDROOT
BRANCH   1   2
ATOM      2  CB  THR A 315      13.429  52.900   9.553  1.00 45.76     0.146 C 
ATOM      3  CG2 THR A 315      14.235  51.856  10.241  1.00 42.73     0.042 C 
BRANCH   2   4
ATOM      4  OG1 THR A 315      14.121  54.154   9.549  1.00 47.20    -0.393 OA
ATOM      5  HG1 THR A 315      14.314  54.370  10.338  1.00 47.20     0.210 HD
ENDBRANCH   2   4
ENDBRANCH   1   2
END_RES THR A 315
ENDMDL
