MODEL 1
REMARK VINA RESULT:   -12.166      0.000      0.000
REMARK ITER + INTRA:          -18.981
REMARK INTER:                 -17.203
REMARK INTRA:                  -1.778
REMARK UNBOUND:                -1.837
REMARK  7 active torsions:
REMARK  status: ('A' for Active; 'I' for Inactive)
REMARK    1  A    between atoms: C5_3  and  C7_7 
REMARK    2  A    between atoms: C9_11  and  N13_13 
REMARK    3  A    between atoms: N13_13  and  C14_15 
REMARK    4  A    between atoms: C16_19  and  N21_21 
REMARK       I    between atoms: N21_21  and  C22_23 
REMARK    5  A    between atoms: C22_23  and  C23_24 
REMARK    6  A    between atoms: C27_27  and  C46_30 
REMARK    7  A    between atoms: C46_30  and  N48_31 
ROOT
HETATM    1  C14 STI A 201      15.618  53.831  12.754  1.00 32.92     0.057 A 
HETATM    2  C19 STI A 201      16.895  53.536  12.092  1.00 28.09    -0.035 A 
HETATM    3  C18 STI A 201      17.714  52.490  12.633  1.00 26.77     0.011 A 
HETATM    4  C17 STI A 201      17.288  51.750  13.795  1.00 25.91     0.030 A 
HETATM    5  C16 STI A 201      16.047  52.031  14.438  1.00 30.34     0.037 A 
HETATM    6  C15 STI A 201      15.214  53.092  13.895  1.00 29.33     0.060 A 
HETATM    7  C20 STI A 201      17.399  54.293  10.841  1.00 26.25     0.050 C 
ENDROOT
BRANCH   5   8
HETATM    8  N21 STI A 201      15.685  51.241  15.589  1.00 31.22    -0.323 N 
HETATM    9  C22 STI A 201      14.779  50.196  15.654  1.00 33.27     0.256 C 
HETATM   10  O29 STI A 201      13.980  49.918  14.772  1.00 38.89    -0.267 OA
HETATM   11  H21 STI A 201      16.154  51.483  16.462  1.00  0.00     0.169 HD
BRANCH   9  12
HETATM   12  C23 STI A 201      14.746  49.344  16.882  1.00 31.14     0.032 A 
HETATM   13  C25 STI A 201      13.540  49.249  17.709  1.00 34.22     0.017 A 
HETATM   14  C26 STI A 201      13.541  48.433  18.897  1.00 31.64     0.010 A 
HETATM   15  C27 STI A 201      14.752  47.705  19.266  1.00 38.05    -0.030 A 
HETATM   16  C28 STI A 201      15.933  47.813  18.425  1.00 29.43     0.010 A 
HETATM   17  C29 STI A 201      15.936  48.612  17.260  1.00 34.20     0.017 A 
BRANCH  15  18
HETATM   18  C46 STI A 201      14.850  46.828  20.528  1.00 35.44     0.311 C 
BRANCH  18  19
HETATM   19  N48 STI A 201      16.127  46.087  20.748  1.00 46.28     0.095 N 
HETATM   20  C53 STI A 201      16.941  46.743  21.836  1.00 45.06     0.300 C 
HETATM   21  C52 STI A 201      18.285  45.998  22.067  1.00 46.67     0.264 C 
HETATM   22  N51 STI A 201      18.042  44.532  22.397  1.00 48.74    -0.072 N 
HETATM   23  H51 STI A 201      17.439  44.492  23.334  1.00  0.00     0.279 HD
HETATM   24  C50 STI A 201      17.232  43.848  21.294  1.00 45.31     0.264 C 
HETATM   25  C54 STI A 201      19.284  43.781  22.632  1.00 49.83     0.269 C 
HETATM   26  C49 STI A 201      15.885  44.613  21.089  1.00 44.33     0.300 C 
ENDBRANCH  18  19
ENDBRANCH  15  18
ENDBRANCH   9  12
ENDBRANCH   5   8
BRANCH   1  27
HETATM   27  N13 STI A 201      14.779  54.840  12.275  1.00 32.90    -0.188 N 
HETATM   28  H13 STI A 201      14.014  54.602  11.644  1.00  0.00     0.184 HD
BRANCH  27  29
HETATM   29  C9  STI A 201      14.975  56.161  12.647  1.00 33.83     0.727 A 
HETATM   30  N10 STI A 201      16.177  56.606  13.166  1.00 32.08    -0.075 NA
HETATM   31  C11 STI A 201      16.352  57.925  13.522  1.00 35.42     0.139 A 
HETATM   32  C12 STI A 201      15.297  58.850  13.359  1.00 30.85     0.053 A 
HETATM   33  C7  STI A 201      14.064  58.355  12.817  1.00 33.05     0.089 A 
HETATM   34  N8  STI A 201      13.951  57.024  12.484  1.00 33.44    -0.062 NA
BRANCH  33  35
HETATM   35  C5  STI A 201      12.858  59.211  12.583  1.00 33.74     0.011 A 
HETATM   36  C4  STI A 201      11.885  58.798  11.583  1.00 31.40     0.130 A 
HETATM   37  N3  STI A 201      10.757  59.578  11.350  1.00 33.76    -0.272 NA
HETATM   38  C2  STI A 201      10.507  60.769  12.047  1.00 35.46     0.116 A 
HETATM   39  C1  STI A 201      11.430  61.237  13.047  1.00 35.17     0.020 A 
HETATM   40  C6  STI A 201      12.610  60.448  13.312  1.00 32.96     0.017 A 
ENDBRANCH  33  35
ENDBRANCH  27  29
ENDBRANCH   1  27
TORSDOF 7
BEGIN_RES THR A 315
REMARK  2 active torsions:
REMARK  status: ('A' for Active; 'I' for Inactive)
REMARK    1  A    between atoms: CA   and  CB  
REMARK    2  A    between atoms: CB   and  OG1 
ROOT
ATOM      1  CA  THR A 315      13.079  52.503   8.093  1.00 45.40     0.205 C 
ENDROOT
BRANCH   1   2
ATOM      2  CB  THR A 315      13.429  52.900   9.553  1.00 45.76     0.146 C 
ATOM      3  CG2 THR A 315      13.852  51.729  10.368  1.00 42.73     0.042 C 
BRANCH   2   4
ATOM      4  OG1 THR A 315      14.452  53.903   9.538  1.00 47.20    -0.393 OA
ATOM      5  HG1 THR A 315      14.106  54.657   9.671  1.00 47.20     0.210 HD
ENDBRANCH   2   4
ENDBRANCH   1   2
END_RES THR A 315
ENDMDL
MODEL 2
REMARK VINA RESULT:   -11.412      3.230     12.097
REMARK ITER + INTRA:          -17.918
REMARK INTER:                 -15.914
REMARK INTRA:                  -2.004
REMARK UNBOUND:                -1.837
REMARK  7 active torsions:
REMARK  status: ('A' for Active; 'I' for Inactive)
REMARK    1  A    between atoms: C5_3  and  C7_7 
REMARK    2  A    between atoms: C9_11  and  N13_13 
REMARK    3  A    between atoms: N13_13  and  C14_15 
REMARK    4  A    between atoms: C16_19  and  N21_21 
REMARK       I    between atoms: N21_21  and  C22_23 
REMARK    5  A    between atoms: C22_23  and  C23_24 
REMARK    6  A    between atoms: C27_27  and  C46_30 
REMARK    7  A    between atoms: C46_30  and  N48_31 
ROOT
HETATM    1  C14 STI A 201      16.538  48.098  17.501  1.00 32.92     0.057 A 
HETATM    2  C19 STI A 201      15.206  47.732  17.997  1.00 28.09    -0.035 A 
HETATM    3  C18 STI A 201      14.108  48.609  17.703  1.00 26.77     0.011 A 
HETATM    4  C17 STI A 201      14.314  49.814  16.939  1.00 25.91     0.030 A 
HETATM    5  C16 STI A 201      15.606  50.170  16.452  1.00 30.34     0.037 A 
HETATM    6  C15 STI A 201      16.723  49.287  16.750  1.00 29.33     0.060 A 
HETATM    7  C20 STI A 201      14.925  46.450  18.816  1.00 26.25     0.050 C 
ENDROOT
BRANCH   5   8
HETATM    8  N21 STI A 201      15.731  51.386  15.687  1.00 31.22    -0.323 N 
HETATM    9  C22 STI A 201      15.231  51.652  14.423  1.00 33.27     0.256 C 
HETATM   10  O29 STI A 201      14.779  50.806  13.666  1.00 38.89    -0.267 OA
HETATM   11  H21 STI A 201      16.252  52.142  16.132  1.00  0.00     0.169 HD
BRANCH   9  12
HETATM   12  C23 STI A 201      15.248  53.060  13.921  1.00 31.14     0.032 A 
HETATM   13  C25 STI A 201      16.505  53.800  13.778  1.00 34.22     0.017 A 
HETATM   14  C26 STI A 201      16.492  55.163  13.308  1.00 31.64     0.010 A 
HETATM   15  C27 STI A 201      15.216  55.794  12.976  1.00 38.05    -0.030 A 
HETATM   16  C28 STI A 201      13.986  55.035  13.123  1.00 29.43     0.010 A 
HETATM   17  C29 STI A 201      13.994  53.699  13.584  1.00 34.20     0.017 A 
BRANCH  15  18
HETATM   18  C46 STI A 201      15.106  57.250  12.488  1.00 35.44     0.311 C 
BRANCH  18  19
HETATM   19  N48 STI A 201      13.805  57.950  12.711  1.00 46.28     0.095 N 
HETATM   20  C53 STI A 201      14.035  59.325  13.286  1.00 45.06     0.300 C 
HETATM   21  C52 STI A 201      12.691  60.063  13.546  1.00 46.67     0.264 C 
HETATM   22  N51 STI A 201      11.867  60.151  12.269  1.00 48.74    -0.072 N 
HETATM   23  H51 STI A 201      12.460  60.729  11.523  1.00  0.00     0.279 HD
HETATM   24  C50 STI A 201      11.611  58.762  11.682  1.00 45.31     0.264 C 
HETATM   25  C54 STI A 201      10.586  60.848  12.457  1.00 49.83     0.269 C 
HETATM   26  C49 STI A 201      12.978  58.048  11.426  1.00 44.33     0.300 C 
ENDBRANCH  18  19
ENDBRANCH  15  18
ENDBRANCH   9  12
ENDBRANCH   5   8
BRANCH   1  27
HETATM   27  N13 STI A 201      17.645  47.287  17.758  1.00 32.90    -0.188 N 
HETATM   28  H13 STI A 201      17.784  46.436  17.213  1.00  0.00     0.184 HD
BRANCH  27  29
HETATM   29  C9  STI A 201      18.558  47.625  18.745  1.00 33.83     0.727 A 
HETATM   30  N10 STI A 201      18.452  47.143  20.037  1.00 32.08    -0.075 NA
HETATM   31  C11 STI A 201      19.375  47.486  21.001  1.00 35.42     0.139 A 
HETATM   32  C12 STI A 201      20.454  48.340  20.679  1.00 30.85     0.053 A 
HETATM   33  C7  STI A 201      20.534  48.819  19.329  1.00 33.05     0.089 A 
HETATM   34  N8  STI A 201      19.578  48.443  18.413  1.00 33.44    -0.062 NA
BRANCH  33  35
HETATM   35  C5  STI A 201      21.618  49.726  18.834  1.00 33.74     0.011 A 
HETATM   36  C4  STI A 201      21.345  51.151  18.717  1.00 31.40     0.130 A 
HETATM   37  N3  STI A 201      22.339  52.011  18.260  1.00 33.76    -0.272 NA
HETATM   38  C2  STI A 201      23.618  51.562  17.898  1.00 35.46     0.116 A 
HETATM   39  C1  STI A 201      23.953  50.165  17.987  1.00 35.17     0.020 A 
HETATM   40  C6  STI A 201      22.942  49.247  18.460  1.00 32.96     0.017 A 
ENDBRANCH  33  35
ENDBRANCH  27  29
ENDBRANCH   1  27
TORSDOF 7
BEGIN_RES THR A 315
REMARK  2 active torsions:
REMARK  status: ('A' for Active; 'I' for Inactive)
REMARK    1  A    between atoms: CA   and  CB  
REMARK    2  A    between atoms: CB   and  OG1 
ROOT
ATOM      1  CA  THR A 315      13.079  52.503   8.093  1.00 45.40     0.205 C 
ENDROOT
BRANCH   1   2
ATOM      2  CB  THR A 315      13.429  52.900   9.553  1.00 45.76     0.146 C 
ATOM      3  CG2 THR A 315      13.565  51.714  10.441  1.00 42.73     0.042 C 
BRANCH   2   4
ATOM      4  OG1 THR A 315      14.633  53.677   9.557  1.00 47.20    -0.393 OA
ATOM      5  HG1 THR A 315      14.666  54.140  10.257  1.00 47.20     0.210 HD
ENDBRANCH   2   4
ENDBRANCH   1   2
END_RES THR A 315
ENDMDL
MODEL 3
REMARK VINA RESULT:   -11.223      1.512      2.137
REMARK ITER + INTRA:          -17.653
REMARK INTER:                 -15.770
REMARK INTRA:                  -1.883
REMARK UNBOUND:                -1.837
REMARK  7 active torsions:
REMARK  status: ('A' for Active; 'I' for Inactive)
REMARK    1  A    between atoms: C5_3  and  C7_7 
REMARK    2  A    between atoms: C9_11  and  N13_13 
REMARK    3  A    between atoms: N13_13  and  C14_15 
REMARK    4  A    between atoms: C16_19  and  N21_21 
REMARK       I    between atoms: N21_21  and  C22_23 
REMARK    5  A    between atoms: C22_23  and  C23_24 
REMARK    6  A    between atoms: C27_27  and  C46_30 
REMARK    7  A    between atoms: C46_30  and  N48_31 
ROOT
HETATM    1  C14 STI A 201      16.390  54.817  13.057  1.00 32.92     0.057 A 
HETATM    2  C19 STI A 201      17.016  54.384  11.802  1.00 28.09    -0.035 A 
HETATM    3  C18 STI A 201      17.569  53.061  11.742  1.00 26.77     0.011 A 
HETATM    4  C17 STI A 201      17.507  52.186  12.885  1.00 25.91     0.030 A 
HETATM    5  C16 STI A 201      16.897  52.602  14.104  1.00 30.34     0.037 A 
HETATM    6  C15 STI A 201      16.336  53.943  14.172  1.00 29.33     0.060 A 
HETATM    7  C20 STI A 201      17.105  55.277  10.543  1.00 26.25     0.050 C 
ENDROOT
BRANCH   5   8
HETATM    8  N21 STI A 201      16.865  51.667  15.202  1.00 31.22    -0.323 N 
HETATM    9  C22 STI A 201      15.844  50.797  15.549  1.00 33.27     0.256 C 
HETATM   10  O29 STI A 201      14.712  50.843  15.093  1.00 38.89    -0.267 OA
HETATM   11  H21 STI A 201      17.695  51.644  15.794  1.00  0.00     0.169 HD
BRANCH   9  12
HETATM   12  C23 STI A 201      16.118  49.731  16.561  1.00 31.14     0.032 A 
HETATM   13  C25 STI A 201      17.460  49.535  17.114  1.00 34.22     0.017 A 
HETATM   14  C26 STI A 201      17.701  48.488  18.076  1.00 31.64     0.010 A 
HETATM   15  C27 STI A 201      16.594  47.630  18.491  1.00 38.05    -0.030 A 
HETATM   16  C28 STI A 201      15.271  47.850  17.930  1.00 29.43     0.010 A 
HETATM   17  C29 STI A 201      15.032  48.874  16.987  1.00 34.20     0.017 A 
BRANCH  15  18
HETATM   18  C46 STI A 201      16.763  46.475  19.496  1.00 35.44     0.311 C 
BRANCH  18  19
HETATM   19  N48 STI A 201      18.047  46.413  20.257  1.00 46.28     0.095 N 
HETATM   20  C53 STI A 201      17.891  47.054  21.613  1.00 45.06     0.300 C 
HETATM   21  C52 STI A 201      19.222  47.019  22.414  1.00 46.67     0.264 C 
HETATM   22  N51 STI A 201      19.730  45.591  22.556  1.00 48.74    -0.072 N 
HETATM   23  H51 STI A 201      18.957  45.011  23.112  1.00  0.00     0.279 HD
HETATM   24  C50 STI A 201      19.910  44.932  21.188  1.00 45.31     0.264 C 
HETATM   25  C54 STI A 201      20.987  45.499  23.314  1.00 49.83     0.269 C 
HETATM   26  C49 STI A 201      18.555  44.976  20.409  1.00 44.33     0.300 C 
ENDBRANCH  18  19
ENDBRANCH  15  18
ENDBRANCH   9  12
ENDBRANCH   5   8
BRANCH   1  27
HETATM   27  N13 STI A 201      15.836  56.094  13.177  1.00 32.90    -0.188 N 
HETATM   28  H13 STI A 201      16.366  56.832  13.639  1.00  0.00     0.184 HD
BRANCH  27  29
HETATM   29  C9  STI A 201      14.573  56.368  12.674  1.00 33.83     0.727 A 
HETATM   30  N10 STI A 201      13.800  55.398  12.065  1.00 32.08    -0.075 NA
HETATM   31  C11 STI A 201      12.544  55.691  11.579  1.00 35.42     0.139 A 
HETATM   32  C12 STI A 201      12.024  56.999  11.701  1.00 30.85     0.053 A 
HETATM   33  C7  STI A 201      12.852  57.981  12.340  1.00 33.05     0.089 A 
HETATM   34  N8  STI A 201      14.100  57.625  12.801  1.00 33.44    -0.062 NA
BRANCH  33  35
HETATM   35  C5  STI A 201      12.441  59.406  12.546  1.00 33.74     0.011 A 
HETATM   36  C4  STI A 201      12.474  59.961  13.891  1.00 31.40     0.130 A 
HETATM   37  N3  STI A 201      12.097  61.283  14.104  1.00 33.76    -0.272 NA
HETATM   38  C2  STI A 201      11.678  62.125  13.064  1.00 35.46     0.116 A 
HETATM   39  C1  STI A 201      11.619  61.639  11.710  1.00 35.17     0.020 A 
HETATM   40  C6  STI A 201      12.006  60.270  11.457  1.00 32.96     0.017 A 
ENDBRANCH  33  35
ENDBRANCH  27  29
ENDBRANCH   1  27
TORSDOF 7
BEGIN_RES THR A 315
REMARK  2 active torsions:
REMARK  status: ('A' for Active; 'I' for Inactive)
REMARK    1  A    between atoms: CA   and  CB  
REMARK    2  A    between atoms: CB   and  OG1 
ROOT
ATOM      1  CA  THR A 315      13.079  52.503   8.093  1.00 45.40     0.205 C 
ENDROOT
BRANCH   1   2
ATOM      2  CB  THR A 315      13.429  52.900   9.553  1.00 45.76     0.146 C 
ATOM      3  CG2 THR A 315      13.445  51.725  10.466  1.00 42.73     0.042 C 
BRANCH   2   4
ATOM      4  OG1 THR A 315      14.694  53.573   9.570  1.00 47.20    -0.393 OA
ATOM      5  HG1 THR A 315      14.959  53.651  10.363  1.00 47.20     0.210 HD
ENDBRANCH   2   4
ENDBRANCH   1   2
END_RES THR A 315
ENDMDL
MODEL 4
REMARK VINA RESULT:   -11.190      4.070     12.005
REMARK ITER + INTRA:          -17.606
REMARK INTER:                 -15.777
REMARK INTRA:                  -1.830
REMARK UNBOUND:                -1.837
REMARK  7 active torsions:
REMARK  status: ('A' for Active; 'I' for Inactive)
REMARK    1  A    between atoms: C5_3  and  C7_7 
REMARK    2  A    between atoms: C9_11  and  N13_13 
REMARK    3  A    between atoms: N13_13  and  C14_15 
REMARK    4  A    between atoms: C16_19  and  N21_21 
REMARK       I    between atoms: N21_21  and  C22_23 
REMARK    5  A    between atoms: C22_23  and  C23_24 
REMARK    6  A    between atoms: C27_27  and  C46_30 
REMARK    7  A    between atoms: C46_30  and  N48_31 
ROOT
HETATM    1  C14 STI A 201      18.291  48.239  19.006  1.00 32.92     0.057 A 
HETATM    2  C19 STI A 201      17.353  47.114  19.107  1.00 28.09    -0.035 A 
HETATM    3  C18 STI A 201      16.237  47.079  18.205  1.00 26.77     0.011 A 
HETATM    4  C17 STI A 201      16.048  48.122  17.227  1.00 25.91     0.030 A 
HETATM    5  C16 STI A 201      16.959  49.214  17.124  1.00 30.34     0.037 A 
HETATM    6  C15 STI A 201      18.091  49.256  18.037  1.00 29.33     0.060 A 
HETATM    7  C20 STI A 201      17.509  45.966  20.131  1.00 26.25     0.050 C 
ENDROOT
BRANCH   5   8
HETATM    8  N21 STI A 201      16.709  50.213  16.115  1.00 31.22    -0.323 N 
HETATM    9  C22 STI A 201      15.522  50.874  15.847  1.00 33.27     0.256 C 
HETATM   10  O29 STI A 201      14.433  50.550  16.298  1.00 38.89    -0.267 OA
HETATM   11  H21 STI A 201      17.504  50.463  15.527  1.00  0.00     0.169 HD
BRANCH   9  12
HETATM   12  C23 STI A 201      15.545  52.058  14.935  1.00 31.14     0.032 A 
HETATM   13  C25 STI A 201      16.766  52.447  14.225  1.00 34.22     0.017 A 
HETATM   14  C26 STI A 201      16.765  53.604  13.365  1.00 31.64     0.010 A 
HETATM   15  C27 STI A 201      15.537  54.379  13.209  1.00 38.05    -0.030 A 
HETATM   16  C28 STI A 201      14.338  53.968  13.921  1.00 29.43     0.010 A 
HETATM   17  C29 STI A 201      14.336  52.836  14.766  1.00 34.20     0.017 A 
BRANCH  15  18
HETATM   18  C46 STI A 201      15.450  55.640  12.328  1.00 35.44     0.311 C 
BRANCH  18  19
HETATM   19  N48 STI A 201      14.558  56.742  12.798  1.00 46.28     0.095 N 
HETATM   20  C53 STI A 201      15.352  58.003  13.033  1.00 45.06     0.300 C 
HETATM   21  C52 STI A 201      14.444  59.158  13.542  1.00 46.67     0.264 C 
HETATM   22  N51 STI A 201      13.304  59.420  12.568  1.00 48.74    -0.072 N 
HETATM   23  H51 STI A 201      13.755  59.716  11.592  1.00  0.00     0.279 HD
HETATM   24  C50 STI A 201      12.479  58.154  12.332  1.00 45.31     0.264 C 
HETATM   25  C54 STI A 201      12.417  60.511  12.999  1.00 49.83     0.269 C 
HETATM   26  C49 STI A 201      13.416  57.014  11.815  1.00 44.33     0.300 C 
ENDBRANCH  18  19
ENDBRANCH  15  18
ENDBRANCH   9  12
ENDBRANCH   5   8
BRANCH   1  27
HETATM   27  N13 STI A 201      19.394  48.330  19.857  1.00 32.90    -0.188 N 
HETATM   28  H13 STI A 201      19.258  48.592  20.833  1.00  0.00     0.184 HD
BRANCH  27  29
HETATM   29  C9  STI A 201      20.673  48.069  19.390  1.00 33.83     0.727 A 
HETATM   30  N10 STI A 201      21.187  46.786  19.339  1.00 32.08    -0.075 NA
HETATM   31  C11 STI A 201      22.459  46.549  18.863  1.00 35.42     0.139 A 
HETATM   32  C12 STI A 201      23.261  47.622  18.414  1.00 30.85     0.053 A 
HETATM   33  C7  STI A 201      22.695  48.939  18.479  1.00 33.05     0.089 A 
HETATM   34  N8  STI A 201      21.419  49.111  18.968  1.00 33.44    -0.062 NA
BRANCH  33  35
HETATM   35  C5  STI A 201      23.417  50.175  18.039  1.00 33.74     0.011 A 
HETATM   36  C4  STI A 201      22.949  51.470  18.509  1.00 31.40     0.130 A 
HETATM   37  N3  STI A 201      23.607  52.630  18.113  1.00 33.76    -0.272 NA
HETATM   38  C2  STI A 201      24.722  52.612  17.262  1.00 35.46     0.116 A 
HETATM   39  C1  STI A 201      25.234  51.365  16.757  1.00 35.17     0.020 A 
HETATM   40  C6  STI A 201      24.573  50.143  17.153  1.00 32.96     0.017 A 
ENDBRANCH  33  35
ENDBRANCH  27  29
ENDBRANCH   1  27
TORSDOF 7
BEGIN_RES THR A 315
REMARK  2 active torsions:
REMARK  status: ('A' for Active; 'I' for Inactive)
REMARK    1  A    between atoms: CA   and  CB  
REMARK    2  A    between atoms: CB   and  OG1 
ROOT
ATOM      1  CA  THR A 315      13.079  52.503   8.093  1.00 45.40     0.205 C 
ENDROOT
BRANCH   1   2
ATOM      2  CB  THR A 315      13.429  52.900   9.553  1.00 45.76     0.146 C 
ATOM      3  CG2 THR A 315      13.707  51.713  10.407  1.00 42.73     0.042 C 
BRANCH   2   4
ATOM      4  OG1 THR A 315      14.550  53.792   9.545  1.00 47.20    -0.393 OA
ATOM      5  HG1 THR A 315      15.260  53.350   9.615  1.00 47.20     0.210 HD
ENDBRANCH   2   4
ENDBRANCH   1   2
END_RES THR A 315
ENDMDL
MODEL 5
REMARK VINA RESULT:   -10.645      3.833     11.989
REMARK ITER + INTRA:          -16.837
REMARK INTER:                 -15.374
REMARK INTRA:                  -1.463
REMARK UNBOUND:                -1.837
REMARK  7 active torsions:
REMARK  status: ('A' for Active; 'I' for Inactive)
REMARK    1  A    between atoms: C5_3  and  C7_7 
REMARK    2  A    between atoms: C9_11  and  N13_13 
REMARK    3  A    between atoms: N13_13  and  C14_15 
REMARK    4  A    between atoms: C16_19  and  N21_21 
REMARK       I    between atoms: N21_21  and  C22_23 
REMARK    5  A    between atoms: C22_23  and  C23_24 
REMARK    6  A    between atoms: C27_27  and  C46_30 
REMARK    7  A    between atoms: C46_30  and  N48_31 
ROOT
HETATM    1  C14 STI A 201      18.545  48.027  18.830  1.00 32.92     0.057 A 
HETATM    2  C19 STI A 201      17.445  47.141  19.232  1.00 28.09    -0.035 A 
HETATM    3  C18 STI A 201      16.169  47.314  18.598  1.00 26.77     0.011 A 
HETATM    4  C17 STI A 201      15.980  48.330  17.592  1.00 25.91     0.030 A 
HETATM    5  C16 STI A 201      17.046  49.189  17.197  1.00 30.34     0.037 A 
HETATM    6  C15 STI A 201      18.341  49.020  17.838  1.00 29.33     0.060 A 
HETATM    7  C20 STI A 201      17.593  46.032  20.299  1.00 26.25     0.050 C 
ENDROOT
BRANCH   5   8
HETATM    8  N21 STI A 201      16.782  50.175  16.179  1.00 31.22    -0.323 N 
HETATM    9  C22 STI A 201      15.584  50.814  15.903  1.00 33.27     0.256 C 
HETATM   10  O29 STI A 201      14.500  50.477  16.355  1.00 38.89    -0.267 OA
HETATM   11  H21 STI A 201      17.574  50.432  15.590  1.00  0.00     0.169 HD
BRANCH   9  12
HETATM   12  C23 STI A 201      15.590  51.990  14.980  1.00 31.14     0.032 A 
HETATM   13  C25 STI A 201      16.787  52.353  14.218  1.00 34.22     0.017 A 
HETATM   14  C26 STI A 201      16.771  53.502  13.348  1.00 31.64     0.010 A 
HETATM   15  C27 STI A 201      15.550  54.296  13.234  1.00 38.05    -0.030 A 
HETATM   16  C28 STI A 201      14.374  53.911  13.997  1.00 29.43     0.010 A 
HETATM   17  C29 STI A 201      14.387  52.786  14.852  1.00 34.20     0.017 A 
BRANCH  15  18
HETATM   18  C46 STI A 201      15.448  55.551  12.347  1.00 35.44     0.311 C 
BRANCH  18  19
HETATM   19  N48 STI A 201      14.605  56.677  12.848  1.00 46.28     0.095 N 
HETATM   20  C53 STI A 201      15.425  57.938  12.973  1.00 45.06     0.300 C 
HETATM   21  C52 STI A 201      14.570  59.118  13.514  1.00 46.67     0.264 C 
HETATM   22  N51 STI A 201      13.356  59.359  12.628  1.00 48.74    -0.072 N 
HETATM   23  H51 STI A 201      13.727  59.616  11.609  1.00  0.00     0.279 HD
HETATM   24  C50 STI A 201      12.505  58.093  12.506  1.00 45.31     0.264 C 
HETATM   25  C54 STI A 201      12.515  60.472  13.092  1.00 49.83     0.269 C 
HETATM   26  C49 STI A 201      13.388  56.927  11.954  1.00 44.33     0.300 C 
ENDBRANCH  18  19
ENDBRANCH  15  18
ENDBRANCH   9  12
ENDBRANCH   5   8
BRANCH   1  27
HETATM   27  N13 STI A 201      19.809  47.909  19.412  1.00 32.90    -0.188 N 
HETATM   28  H13 STI A 201      20.184  46.983  19.620  1.00  0.00     0.184 HD
BRANCH  27  29
HETATM   29  C9  STI A 201      20.559  49.035  19.712  1.00 33.83     0.727 A 
HETATM   30  N10 STI A 201      21.384  49.636  18.779  1.00 32.08    -0.075 NA
HETATM   31  C11 STI A 201      22.115  50.761  19.097  1.00 35.42     0.139 A 
HETATM   32  C12 STI A 201      22.028  51.321  20.391  1.00 30.85     0.053 A 
HETATM   33  C7  STI A 201      21.162  50.674  21.333  1.00 33.05     0.089 A 
HETATM   34  N8  STI A 201      20.460  49.551  20.955  1.00 33.44    -0.062 NA
BRANCH  33  35
HETATM   35  C5  STI A 201      20.962  51.148  22.739  1.00 33.74     0.011 A 
HETATM   36  C4  STI A 201      21.507  52.439  23.131  1.00 31.40     0.130 A 
HETATM   37  N3  STI A 201      21.331  52.900  24.432  1.00 33.76    -0.272 NA
HETATM   38  C2  STI A 201      20.640  52.163  25.406  1.00 35.46     0.116 A 
HETATM   39  C1  STI A 201      20.078  50.877  25.086  1.00 35.17     0.020 A 
HETATM   40  C6  STI A 201      20.243  50.373  23.742  1.00 32.96     0.017 A 
ENDBRANCH  33  35
ENDBRANCH  27  29
ENDBRANCH   1  27
TORSDOF 7
BEGIN_RES THR A 315
REMARK  2 active torsions:
REMARK  status: ('A' for Active; 'I' for Inactive)
REMARK    1  A    between atoms: CA   and  CB  
REMARK    2  A    between atoms: CB   and  OG1 
ROOT
ATOM      1  CA  THR A 315      13.079  52.503   8.093  1.00 45.40     0.205 C 
ENDROOT
BRANCH   1   2
ATOM      2  CB  THR A 315      13.429  52.900   9.553  1.00 45.76     0.146 C 
ATOM      3  CG2 THR A 315      13.663  51.712  10.418  1.00 42.73     0.042 C 
BRANCH   2   4
ATOM      4  OG1 THR A 315      14.577  53.757   9.548  1.00 47.20    -0.393 OA
ATOM      5  HG1 THR A 315      14.376  54.497   9.892  1.00 47.20     0.210 HD
ENDBRANCH   2   4
ENDBRANCH   1   2
END_RES THR A 315
ENDMDL
MODEL 6
REMARK VINA RESULT:   -10.204      2.537     12.115
REMARK ITER + INTRA:          -16.216
REMARK INTER:                 -15.004
REMARK INTRA:                  -1.213
REMARK UNBOUND:                -1.837
REMARK  7 active torsions:
REMARK  status: ('A' for Active; 'I' for Inactive)
REMARK    1  A    between atoms: C5_3  and  C7_7 
REMARK    2  A    between atoms: C9_11  and  N13_13 
REMARK    3  A    between atoms: N13_13  and  C14_15 
REMARK    4  A    between atoms: C16_19  and  N21_21 
REMARK       I    between atoms: N21_21  and  C22_23 
REMARK    5  A    between atoms: C22_23  and  C23_24 
REMARK    6  A    between atoms: C27_27  and  C46_30 
REMARK    7  A    between atoms: C46_30  and  N48_31 
ROOT
HETATM    1  C14 STI A 201      15.013  47.338  18.433  1.00 32.92     0.057 A 
HETATM    2  C19 STI A 201      13.647  47.199  18.951  1.00 28.09    -0.035 A 
HETATM    3  C18 STI A 201      12.689  48.213  18.617  1.00 26.77     0.011 A 
HETATM    4  C17 STI A 201      13.063  49.335  17.792  1.00 25.91     0.030 A 
HETATM    5  C16 STI A 201      14.388  49.471  17.285  1.00 30.34     0.037 A 
HETATM    6  C15 STI A 201      15.364  48.447  17.623  1.00 29.33     0.060 A 
HETATM    7  C20 STI A 201      13.188  46.015  19.834  1.00 26.25     0.050 C 
ENDROOT
BRANCH   5   8
HETATM    8  N21 STI A 201      14.685  50.616  16.460  1.00 31.22    -0.323 N 
HETATM    9  C22 STI A 201      15.875  50.917  15.817  1.00 33.27     0.256 C 
HETATM   10  O29 STI A 201      16.937  50.353  16.030  1.00 38.89    -0.267 OA
HETATM   11  H21 STI A 201      13.926  51.285  16.334  1.00  0.00     0.169 HD
BRANCH   9  12
HETATM   12  C23 STI A 201      15.889  52.014  14.802  1.00 31.14     0.032 A 
HETATM   13  C25 STI A 201      14.660  52.713  14.421  1.00 34.22     0.017 A 
HETATM   14  C26 STI A 201      14.699  53.756  13.426  1.00 31.64     0.010 A 
HETATM   15  C27 STI A 201      15.975  54.106  12.806  1.00 38.05    -0.030 A 
HETATM   16  C28 STI A 201      17.180  53.399  13.206  1.00 29.43     0.010 A 
HETATM   17  C29 STI A 201      17.145  52.376  14.180  1.00 34.20     0.017 A 
BRANCH  15  18
HETATM   18  C46 STI A 201      16.107  55.190  11.720  1.00 35.44     0.311 C 
BRANCH  18  19
HETATM   19  N48 STI A 201      15.407  56.487  11.961  1.00 46.28     0.095 N 
HETATM   20  C53 STI A 201      13.920  56.269  12.102  1.00 45.06     0.300 C 
HETATM   21  C52 STI A 201      13.170  57.611  12.332  1.00 46.67     0.264 C 
HETATM   22  N51 STI A 201      13.719  58.336  13.552  1.00 48.74    -0.072 N 
HETATM   23  H51 STI A 201      13.562  57.676  14.437  1.00  0.00     0.279 HD
HETATM   24  C50 STI A 201      15.223  58.580  13.417  1.00 45.31     0.264 C 
HETATM   25  C54 STI A 201      13.038  59.611  13.821  1.00 49.83     0.269 C 
HETATM   26  C49 STI A 201      15.951  57.215  13.193  1.00 44.33     0.300 C 
ENDBRANCH  18  19
ENDBRANCH  15  18
ENDBRANCH   9  12
ENDBRANCH   5   8
BRANCH   1  27
HETATM   27  N13 STI A 201      15.990  46.384  18.727  1.00 32.90    -0.188 N 
HETATM   28  H13 STI A 201      15.981  45.487  18.242  1.00  0.00     0.184 HD
BRANCH  27  29
HETATM   29  C9  STI A 201      16.973  46.643  19.669  1.00 33.83     0.727 A 
HETATM   30  N10 STI A 201      16.726  46.562  21.027  1.00 32.08    -0.075 NA
HETATM   31  C11 STI A 201      17.720  46.817  21.947  1.00 35.42     0.139 A 
HETATM   32  C12 STI A 201      19.018  47.164  21.511  1.00 30.85     0.053 A 
HETATM   33  C7  STI A 201      19.240  47.236  20.096  1.00 33.05     0.089 A 
HETATM   34  N8  STI A 201      18.204  46.974  19.227  1.00 33.44    -0.062 NA
BRANCH  33  35
HETATM   35  C5  STI A 201      20.559  47.587  19.480  1.00 33.74     0.011 A 
HETATM   36  C4  STI A 201      20.945  48.987  19.390  1.00 31.40     0.130 A 
HETATM   37  N3  STI A 201      22.167  49.335  18.822  1.00 33.76    -0.272 NA
HETATM   38  C2  STI A 201      23.064  48.380  18.320  1.00 35.46     0.116 A 
HETATM   39  C1  STI A 201      22.744  46.978  18.375  1.00 35.17     0.020 A 
HETATM   40  C6  STI A 201      21.482  46.586  18.960  1.00 32.96     0.017 A 
ENDBRANCH  33  35
ENDBRANCH  27  29
ENDBRANCH   1  27
TORSDOF 7
BEGIN_RES THR A 315
REMARK  2 active torsions:
REMARK  status: ('A' for Active; 'I' for Inactive)
REMARK    1  A    between atoms: CA   and  CB  
REMARK    2  A    between atoms: CB   and  OG1 
ROOT
ATOM      1  CA  THR A 315      13.079  52.503   8.093  1.00 45.40     0.205 C 
ENDROOT
BRANCH   1   2
ATOM      2  CB  THR A 315      13.429  52.900   9.553  1.00 45.76     0.146 C 
ATOM      3  CG2 THR A 315      13.406  51.732  10.474  1.00 42.73     0.042 C 
BRANCH   2   4
ATOM      4  OG1 THR A 315      14.712  53.538   9.575  1.00 47.20    -0.393 OA
ATOM      5  HG1 THR A 315      15.227  53.150   9.037  1.00 47.20     0.210 HD
ENDBRANCH   2   4
ENDBRANCH   1   2
END_RES THR A 315
ENDMDL
MODEL 7
REMARK VINA RESULT:    -9.547      2.493     12.258
REMARK ITER + INTRA:          -15.291
REMARK INTER:                 -13.624
REMARK INTRA:                  -1.667
REMARK UNBOUND:                -1.837
REMARK  7 active torsions:
REMARK  status: ('A' for Active; 'I' for Inactive)
REMARK    1  A    between atoms: C5_3  and  C7_7 
REMARK    2  A    between atoms: C9_11  and  N13_13 
REMARK    3  A    between atoms: N13_13  and  C14_15 
REMARK    4  A    between atoms: C16_19  and  N21_21 
REMARK       I    between atoms: N21_21  and  C22_23 
REMARK    5  A    between atoms: C22_23  and  C23_24 
REMARK    6  A    between atoms: C27_27  and  C46_30 
REMARK    7  A    between atoms: C46_30  and  N48_31 
ROOT
HETATM    1  C14 STI A 201      15.459  46.788  19.479  1.00 32.92     0.057 A 
HETATM    2  C19 STI A 201      14.082  46.331  19.700  1.00 28.09    -0.035 A 
HETATM    3  C18 STI A 201      13.014  47.087  19.110  1.00 26.77     0.011 A 
HETATM    4  C17 STI A 201      13.294  48.261  18.321  1.00 25.91     0.030 A 
HETATM    5  C16 STI A 201      14.630  48.705  18.101  1.00 30.34     0.037 A 
HETATM    6  C15 STI A 201      15.716  47.944  18.699  1.00 29.33     0.060 A 
HETATM    7  C20 STI A 201      13.724  45.078  20.532  1.00 26.25     0.050 C 
ENDROOT
BRANCH   5   8
HETATM    8  N21 STI A 201      14.831  49.882  17.293  1.00 31.22    -0.323 N 
HETATM    9  C22 STI A 201      15.877  50.151  16.426  1.00 33.27     0.256 C 
HETATM   10  O29 STI A 201      16.915  49.509  16.374  1.00 38.89    -0.267 OA
HETATM   11  H21 STI A 201      14.114  50.604  17.369  1.00  0.00     0.169 HD
BRANCH   9  12
HETATM   12  C23 STI A 201      15.758  51.311  15.490  1.00 31.14     0.032 A 
HETATM   13  C25 STI A 201      14.543  52.127  15.441  1.00 34.22     0.017 A 
HETATM   14  C26 STI A 201      14.448  53.230  14.517  1.00 31.64     0.010 A 
HETATM   15  C27 STI A 201      15.575  53.523  13.635  1.00 38.05    -0.030 A 
HETATM   16  C28 STI A 201      16.771  52.701  13.708  1.00 29.43     0.010 A 
HETATM   17  C29 STI A 201      16.867  51.619  14.612  1.00 34.20     0.017 A 
BRANCH  15  18
HETATM   18  C46 STI A 201      15.554  54.667  12.604  1.00 35.44     0.311 C 
BRANCH  18  19
HETATM   19  N48 STI A 201      14.885  55.940  13.008  1.00 46.28     0.095 N 
HETATM   20  C53 STI A 201      15.825  57.108  12.843  1.00 45.06     0.300 C 
HETATM   21  C52 STI A 201      15.155  58.441  13.278  1.00 46.67     0.264 C 
HETATM   22  N51 STI A 201      13.869  58.680  12.500  1.00 48.74    -0.072 N 
HETATM   23  H51 STI A 201      14.135  58.743  11.419  1.00  0.00     0.279 HD
HETATM   24  C50 STI A 201      12.897  57.511  12.671  1.00 45.31     0.264 C 
HETATM   25  C54 STI A 201      13.196  59.934  12.868  1.00 49.83     0.269 C 
HETATM   26  C49 STI A 201      13.596  56.186  12.220  1.00 44.33     0.300 C 
ENDBRANCH  18  19
ENDBRANCH  15  18
ENDBRANCH   9  12
ENDBRANCH   5   8
BRANCH   1  27
HETATM   27  N13 STI A 201      16.540  46.095  20.030  1.00 32.90    -0.188 N 
HETATM   28  H13 STI A 201      16.371  45.258  20.587  1.00  0.00     0.184 HD
BRANCH  27  29
HETATM   29  C9  STI A 201      17.840  46.534  19.828  1.00 33.83     0.727 A 
HETATM   30  N10 STI A 201      18.515  46.305  18.644  1.00 32.08    -0.075 NA
HETATM   31  C11 STI A 201      19.804  46.757  18.462  1.00 35.42     0.139 A 
HETATM   32  C12 STI A 201      20.458  47.469  19.492  1.00 30.85     0.053 A 
HETATM   33  C7  STI A 201      19.728  47.690  20.707  1.00 33.05     0.089 A 
HETATM   34  N8  STI A 201      18.443  47.210  20.828  1.00 33.44    -0.062 NA
BRANCH  33  35
HETATM   35  C5  STI A 201      20.282  48.428  21.885  1.00 33.74     0.011 A 
HETATM   36  C4  STI A 201      21.089  49.617  21.657  1.00 31.40     0.130 A 
HETATM   37  N3  STI A 201      21.613  50.319  22.738  1.00 33.76    -0.272 NA
HETATM   38  C2  STI A 201      21.397  49.926  24.068  1.00 35.46     0.116 A 
HETATM   39  C1  STI A 201      20.611  48.757  24.365  1.00 35.17     0.020 A 
HETATM   40  C6  STI A 201      20.052  48.009  23.262  1.00 32.96     0.017 A 
ENDBRANCH  33  35
ENDBRANCH  27  29
ENDBRANCH   1  27
TORSDOF 7
BEGIN_RES THR A 315
REMARK  2 active torsions:
REMARK  status: ('A' for Active; 'I' for Inactive)
REMARK    1  A    between atoms: CA   and  CB  
REMARK    2  A    between atoms: CB   and  OG1 
ROOT
ATOM      1  CA  THR A 315      13.079  52.503   8.093  1.00 45.40     0.205 C 
ENDROOT
BRANCH   1   2
ATOM      2  CB  THR A 315      13.429  52.900   9.553  1.00 45.76     0.146 C 
ATOM      3  CG2 THR A 315      13.688  51.713  10.411  1.00 42.73     0.042 C 
BRANCH   2   4
ATOM      4  OG1 THR A 315      14.562  53.777   9.546  1.00 47.20    -0.393 OA
ATOM      5  HG1 THR A 315      14.300  54.572   9.471  1.00 47.20     0.210 HD
ENDBRANCH   2   4
ENDBRANCH   1   2
END_RES THR A 315
ENDMDL
MODEL 8
REMARK VINA RESULT:    -9.367      2.476     12.406
REMARK ITER + INTRA:          -15.037
REMARK INTER:                 -12.989
REMARK INTRA:                  -2.048
REMARK UNBOUND:                -1.837
REMARK  7 active torsions:
REMARK  status: ('A' for Active; 'I' for Inactive)
REMARK    1  A    between atoms: C5_3  and  C7_7 
REMARK    2  A    between atoms: C9_11  and  N13_13 
REMARK    3  A    between atoms: N13_13  and  C14_15 
REMARK    4  A    between atoms: C16_19  and  N21_21 
REMARK       I    between atoms: N21_21  and  C22_23 
REMARK    5  A    between atoms: C22_23  and  C23_24 
REMARK    6  A    between atoms: C27_27  and  C46_30 
REMARK    7  A    between atoms: C46_30  and  N48_31 
ROOT
HETATM    1  C14 STI A 201      15.351  46.828  20.606  1.00 32.92     0.057 A 
HETATM    2  C19 STI A 201      14.120  46.040  20.476  1.00 28.09    -0.035 A 
HETATM    3  C18 STI A 201      13.173  46.423  19.467  1.00 26.77     0.011 A 
HETATM    4  C17 STI A 201      13.432  47.550  18.606  1.00 25.91     0.030 A 
HETATM    5  C16 STI A 201      14.628  48.315  18.727  1.00 30.34     0.037 A 
HETATM    6  C15 STI A 201      15.590  47.934  19.749  1.00 29.33     0.060 A 
HETATM    7  C20 STI A 201      13.793  44.819  21.366  1.00 26.25     0.050 C 
ENDROOT
BRANCH   5   8
HETATM    8  N21 STI A 201      14.820  49.422  17.824  1.00 31.22    -0.323 N 
HETATM    9  C22 STI A 201      15.866  49.628  16.938  1.00 33.27     0.256 C 
HETATM   10  O29 STI A 201      16.909  48.992  16.942  1.00 38.89    -0.267 OA
HETATM   11  H21 STI A 201      14.098  50.142  17.839  1.00  0.00     0.169 HD
BRANCH   9  12
HETATM   12  C23 STI A 201      15.739  50.705  15.909  1.00 31.14     0.032 A 
HETATM   13  C25 STI A 201      14.458  51.369  15.658  1.00 34.22     0.017 A 
HETATM   14  C26 STI A 201      14.360  52.393  14.648  1.00 31.64     0.010 A 
HETATM   15  C27 STI A 201      15.549  52.759  13.882  1.00 38.05    -0.030 A 
HETATM   16  C28 STI A 201      16.808  52.088  14.156  1.00 29.43     0.010 A 
HETATM   17  C29 STI A 201      16.908  51.083  15.144  1.00 34.20     0.017 A 
BRANCH  15  18
HETATM   18  C46 STI A 201      15.532  53.826  12.771  1.00 35.44     0.311 C 
BRANCH  18  19
HETATM   19  N48 STI A 201      15.132  55.211  13.159  1.00 46.28     0.095 N 
HETATM   20  C53 STI A 201      16.238  56.189  12.848  1.00 45.06     0.300 C 
HETATM   21  C52 STI A 201      15.850  57.636  13.263  1.00 46.67     0.264 C 
HETATM   22  N51 STI A 201      14.556  58.064  12.587  1.00 48.74    -0.072 N 
HETATM   23  H51 STI A 201      14.725  58.036  11.485  1.00  0.00     0.279 HD
HETATM   24  C50 STI A 201      13.420  57.092  12.907  1.00 45.31     0.264 C 
HETATM   25  C54 STI A 201      14.146  59.431  12.941  1.00 49.83     0.269 C 
HETATM   26  C49 STI A 201      13.835  55.648  12.472  1.00 44.33     0.300 C 
ENDBRANCH  18  19
ENDBRANCH  15  18
ENDBRANCH   9  12
ENDBRANCH   5   8
BRANCH   1  27
HETATM   27  N13 STI A 201      16.309  46.507  21.570  1.00 32.90    -0.188 N 
HETATM   28  H13 STI A 201      16.155  46.775  22.542  1.00  0.00     0.184 HD
BRANCH  27  29
HETATM   29  C9  STI A 201      17.465  45.827  21.221  1.00 33.83     0.727 A 
HETATM   30  N10 STI A 201      17.603  44.465  21.419  1.00 32.08    -0.075 NA
HETATM   31  C11 STI A 201      18.759  43.808  21.057  1.00 35.42     0.139 A 
HETATM   32  C12 STI A 201      19.829  44.523  20.472  1.00 30.85     0.053 A 
HETATM   33  C7  STI A 201      19.651  45.934  20.280  1.00 33.05     0.089 A 
HETATM   34  N8  STI A 201      18.472  46.532  20.666  1.00 33.44    -0.062 NA
BRANCH  33  35
HETATM   35  C5  STI A 201      20.688  46.825  19.671  1.00 33.74     0.011 A 
HETATM   36  C4  STI A 201      21.785  46.225  18.927  1.00 31.40     0.130 A 
HETATM   37  N3  STI A 201      22.759  47.035  18.352  1.00 33.76    -0.272 NA
HETATM   38  C2  STI A 201      22.735  48.434  18.458  1.00 35.46     0.116 A 
HETATM   39  C1  STI A 201      21.680  49.093  19.183  1.00 35.17     0.020 A 
HETATM   40  C6  STI A 201      20.653  48.277  19.790  1.00 32.96     0.017 A 
ENDBRANCH  33  35
ENDBRANCH  27  29
ENDBRANCH   1  27
TORSDOF 7
BEGIN_RES THR A 315
REMARK  2 active torsions:
REMARK  status: ('A' for Active; 'I' for Inactive)
REMARK    1  A    between atoms: CA   and  CB  
REMARK    2  A    between atoms: CB   and  OG1 
ROOT
ATOM      1  CA  THR A 315      13.079  52.503   8.093  1.00 45.40     0.205 C 
ENDROOT
BRANCH   1   2
ATOM      2  CB  THR A 315      13.429  52.900   9.553  1.00 45.76     0.146 C 
ATOM      3  CG2 THR A 315      13.654  51.712  10.420  1.00 42.73     0.042 C 
BRANCH   2   4
ATOM      4  OG1 THR A 315      14.582  53.750   9.549  1.00 47.20    -0.393 OA
ATOM      5  HG1 THR A 315      14.896  53.793   8.771  1.00 47.20     0.210 HD
ENDBRANCH   2   4
ENDBRANCH   1   2
END_RES THR A 315
ENDMDL
