@<TRIPOS>MOLECULE
lig_BACE_1.pdb
 87 88 0 0 0
SMALL
GASTEIGER

@<TRIPOS>ATOM
      1  C3        31.5440    5.8230   14.7790 C.3   401  E4Y401      0.0496
      2  C5        32.6350    6.6470   15.4460 C.3   401  E4Y401     -0.0295
      3  C8        32.1140    8.0290   15.8800 C.3   401  E4Y401     -0.0421
      4  C10       32.9910    8.6850   16.9590 C.3   401  E4Y401     -0.0504
      5  C13       32.5570   10.1050   17.3880 C.3   401  E4Y401     -0.0528
      6  C16       31.0900   10.2080   17.8370 C.3   401  E4Y401     -0.0516
      7  C19       30.6940    9.1970   18.9450 C.3   401  E4Y401     -0.0371
      8  C22       29.1970    9.2010   19.1640 C.3   401  E4Y401      0.0150
      9  C26       27.8690    7.1800   19.9510 C.2   401  E4Y401      0.2467
     10  C27       27.4250    6.8710   18.5530 C.ar  401  E4Y401      0.0411
     11  C28       28.4030    6.6100   17.5890 C.ar  401  E4Y401     -0.0373
     12  C30       28.0400    6.2370   16.2980 C.ar  401  E4Y401      0.0409
     13  C31       26.6950    6.1600   15.9570 C.ar  401  E4Y401     -0.0078
     14  C33       25.7320    6.3780   16.9280 C.ar  401  E4Y401      0.1219
     15  C34       26.0830    6.7170   18.2280 C.ar  401  E4Y401     -0.0078
     16  C37       23.4190    6.9640   17.2510 C.3   401  E4Y401      0.0868
     17  C40       22.1030    6.6210   16.6430 C.3   401  E4Y401     -0.0307
     18  C44       29.1010    6.0910   15.2620 C.2   401  E4Y401      0.2445
     19  C47       29.1950    8.4320   21.5500 C.3   401  E4Y401      0.0121
     20  C50       30.2640    7.4020   21.9040 C.3   401  E4Y401     -0.0493
     21  C54       31.9460    8.9490   14.6650 C.3   401  E4Y401     -0.0624
     22  C58       32.0220    4.4230   14.3490 C.3   401  E4Y401      0.0742
     23  C62       30.9280    3.5740   13.7130 C.3   401  E4Y401     -0.0143
     24  C65       31.4730    2.6550   12.6090 C.3   401  E4Y401      0.0351
     25  C67       30.5220    1.5380   12.3150 C.3   401  E4Y401     -0.0540
     26  C71       31.7230    3.4250   11.3170 C.2   401  E4Y401      0.2159
     27  C75       33.2910    3.9990    9.4900 C.3   401  E4Y401      0.0116
     28  C78       34.2900    3.1990    8.6340 C.3   401  E4Y401     -0.0376
     29  C81       34.9530    4.0150    7.4690 C.3   401  E4Y401     -0.0545
     30  C84       33.9670    4.8060    6.6500 C.3   401  E4Y401     -0.0652
     31  N1        30.3360    5.8150   15.6920 N.am  401  E4Y401     -0.3060
     32  N25       28.7090    8.2200   20.1640 N.am  401  E4Y401     -0.2978
     33  N73       32.9230    3.2900   10.7560 N.am  401  E4Y401     -0.3151
     34  O36       24.4290    6.2350   16.5290 O.3   401  E4Y401     -0.4922
     35  O45       28.8540    6.2920   14.0770 O.2   401  E4Y401     -0.2702
     36  O46       27.5220    6.4460   20.8580 O.2   401  E4Y401     -0.2700
     37  O60       32.6340    3.7130   15.4220 O.3   401  E4Y401     -0.3899
     38  O72       30.8520    4.1550   10.8500 O.2   401  E4Y401     -0.2755
     39 H          31.2644    6.2763   13.8510 H     401  E4Y401      0.0524
     40 H          33.4409    6.7808   14.7550 H     401  E4Y401      0.0286
     41 H          32.9641    6.1234   16.3192 H     401  E4Y401      0.0286
     42 H          31.1544    7.8742   16.3273 H     401  E4Y401      0.0299
     43 H          33.9905    8.7444   16.5818 H     401  E4Y401      0.0268
     44 H          32.8980    8.0708   17.8302 H     401  E4Y401      0.0268
     45 H          32.7008   10.7648   16.5580 H     401  E4Y401      0.0265
     46 H          33.1564   10.3666   18.2348 H     401  E4Y401      0.0265
     47 H          30.4652   10.0353   16.9857 H     401  E4Y401      0.0266
     48 H          30.9624   11.1860   18.2519 H     401  E4Y401      0.0266
     49 H          31.1830    9.4670   19.8576 H     401  E4Y401      0.0280
     50 H          30.9937    8.2166   18.6385 H     401  E4Y401      0.0280
     51 H          28.7238    8.9856   18.2288 H     401  E4Y401      0.0464
     52 H          28.9529   10.1688   19.5495 H     401  E4Y401      0.0464
     53 H          29.4014    6.6945   17.8362 H     401  E4Y401      0.0633
     54 H          26.4160    5.9420   14.9876 H     401  E4Y401      0.0662
     55 H          25.3541    6.8532   18.9458 H     401  E4Y401      0.0662
     56 H          23.5973    8.0158   17.1681 H     401  E4Y401      0.0694
     57 H          23.4350    6.7049   18.2890 H     401  E4Y401      0.0694
     58 H          22.1085    6.8877   15.6068 H     401  E4Y401      0.0262
     59 H          21.3267    7.1591   17.1457 H     401  E4Y401      0.0262
     60 H          21.9285    5.5698   16.7398 H     401  E4Y401      0.0262
     61 H          28.3742    8.3357   22.2297 H     401  E4Y401      0.0462
     62 H          29.6201    9.4113   21.6221 H     401  E4Y401      0.0462
     63 H          29.8484    6.4184   21.8349 H     401  E4Y401      0.0245
     64 H          30.6086    7.5742   22.9023 H     401  E4Y401      0.0245
     65 H          31.0846    7.4911   21.2231 H     401  E4Y401      0.0245
     66 H          32.8991    9.1128   14.2071 H     401  E4Y401      0.0232
     67 H          31.5364    9.8857   14.9808 H     401  E4Y401      0.0232
     68 H          31.2853    8.4906   13.9592 H     401  E4Y401      0.0232
     69 H          32.7578    4.6033   13.5933 H     401  E4Y401      0.0612
     70 H          30.4759    2.9701   14.4718 H     401  E4Y401      0.0298
     71 H          30.2164    4.2367   13.2665 H     401  E4Y401      0.0298
     72 H          32.3969    2.2563   12.9727 H     401  E4Y401      0.0392
     73 H          29.5998    1.9410   11.9517 H     401  E4Y401      0.0237
     74 H          30.3396    0.9801   13.2096 H     401  E4Y401      0.0237
     75 H          30.9465    0.8940   11.5734 H     401  E4Y401      0.0237
     76 H          32.4020    4.1618    8.9172 H     401  E4Y401      0.0462
     77 H          33.7605    4.9220    9.7594 H     401  E4Y401      0.0462
     78 H          35.0680    2.8416    9.2758 H     401  E4Y401      0.0280
     79 H          33.7312    2.4117    8.1727 H     401  E4Y401      0.0280
     80 H          35.6626    4.6944    7.8930 H     401  E4Y401      0.0263
     81 H          35.4110    3.3067    6.8107 H     401  E4Y401      0.0263
     82 H          33.4845    5.5293    7.2736 H     401  E4Y401      0.0230
     83 H          33.2338    4.1445    6.2379 H     401  E4Y401      0.0230
     84 H          34.4823    5.3061    5.8567 H     401  E4Y401      0.0230
     85 H          30.4659    5.5971   16.6433 H     401  E4Y401      0.1494
     86 H          33.5884    2.7062   11.1869 H     401  E4Y401      0.1487
     87 H          31.9761    3.5434   16.1143 H     401  E4Y401      0.2099
@<TRIPOS>BOND
     1    30    29    1
     2    29    28    1
     3    28    27    1
     4    27    33    1
     5    33    26   am
     6    38    26    2
     7    26    24    1
     8    25    24    1
     9    24    23    1
    10    23    22    1
    11    35    18    2
    12    22     1    1
    13    22    37    1
    14    21     3    1
    15     1     2    1
    16     1    31    1
    17    18    31   am
    18    18    12    1
    19     2     3    1
    20     3     4    1
    21    13    12   ar
    22    13    14   ar
    23    12    11   ar
    24    34    14    1
    25    34    16    1
    26    17    16    1
    27    14    15   ar
    28     4     5    1
    29     5     6    1
    30    11    10   ar
    31     6     7    1
    32    15    10   ar
    33    10     9    1
    34     7     8    1
    35     8    32    1
    36     9    32   am
    37     9    36    2
    38    32    19    1
    39    19    20    1
    40     1    39    1
    41     2    40    1
    42     2    41    1
    43     3    42    1
    44     4    43    1
    45     4    44    1
    46     5    45    1
    47     5    46    1
    48     6    47    1
    49     6    48    1
    50     7    49    1
    51     7    50    1
    52     8    51    1
    53     8    52    1
    54    11    53    1
    55    13    54    1
    56    15    55    1
    57    16    56    1
    58    16    57    1
    59    17    58    1
    60    17    59    1
    61    17    60    1
    62    19    61    1
    63    19    62    1
    64    20    63    1
    65    20    64    1
    66    20    65    1
    67    21    66    1
    68    21    67    1
    69    21    68    1
    70    22    69    1
    71    23    70    1
    72    23    71    1
    73    24    72    1
    74    25    73    1
    75    25    74    1
    76    25    75    1
    77    27    76    1
    78    27    77    1
    79    28    78    1
    80    28    79    1
    81    29    80    1
    82    29    81    1
    83    30    82    1
    84    30    83    1
    85    30    84    1
    86    31    85    1
    87    33    86    1
    88    37    87    1
