REMARK Flexibility Score: inf
REMARK Active torsions [ 6 ] -> [ 6 ]
ROOT
ATOM      1  C1  LIG L   1      19.595 134.126   1.857  1.00  0.00     0.000 A 
ATOM      2  N1  LIG L   1      20.102 132.867   1.704  1.00  0.00     0.000 N 
ATOM      3  C2  LIG L   1      18.961 134.245   3.040  1.00  0.00     0.000 A 
ATOM      4  C3  LIG L   1      19.810 132.153   2.774  1.00  0.00     0.000 A 
ATOM      5  N2  LIG L   1      19.096 132.955   3.655  1.00  0.00     0.000 NA
ENDROOT
BRANCH    1    6
ATOM      6  C4  LIG L   1      19.752 135.207   0.790  1.00  0.00     0.000 C 
BRANCH    6    7
ATOM      7  N3  LIG L   1      18.561 135.205  -0.060  1.00  0.00     0.000 N 
ATOM      8  C5  LIG L   1      17.265 135.644   0.465  1.00  0.00     0.000 C 
ATOM      9  C6  LIG L   1      18.950 135.892  -1.299  1.00  0.00     0.000 C 
ATOM     10  H1  LIG L   1      18.313 134.223  -0.182  1.00  0.00     0.000 HD
ATOM     11  C7  LIG L   1      16.328 135.043  -0.596  1.00  0.00     0.000 C 
ATOM     12  C8  LIG L   1      17.872 135.664  -2.402  1.00  0.00     0.000 C 
ATOM     13  N4  LIG L   1      16.593 135.244  -2.023  1.00  0.00     0.000 N 
ATOM     14  O1  LIG L   1      18.154 135.847  -3.571  1.00  0.00     0.000 OA
BRANCH   13   15
ATOM     15  C9  LIG L   1      15.565 135.004  -2.907  1.00  0.00     0.000 A 
ATOM     16 C10  LIG L   1      15.030 133.727  -2.832  1.00  0.00     0.000 A 
ATOM     17 C11  LIG L   1      15.030 135.947  -3.852  1.00  0.00     0.000 A 
ATOM     18 C12  LIG L   1      13.977 133.325  -3.654  1.00  0.00     0.000 A 
ATOM     19 C13  LIG L   1      13.967 135.545  -4.693  1.00  0.00     0.000 A 
ATOM     20 C14  LIG L   1      13.440 134.232  -4.591  1.00  0.00     0.000 A 
ATOM     21 CL1  LIG L   1      13.384 131.716  -3.463  1.00  0.00     0.000 Cl
ENDBRANCH   13   15
ENDBRANCH    6    7
ENDBRANCH    1    6
BRANCH    2   22
ATOM     22 C15  LIG L   1      20.865 132.320   0.557  1.00  0.00     0.000 C 
BRANCH   22   23
ATOM     23 C16  LIG L   1      20.051 132.206  -0.740  1.00  0.00     0.000 A 
ATOM     24 C17  LIG L   1      20.616 132.593  -1.977  1.00  0.00     0.000 A 
ATOM     25 C18  LIG L   1      18.737 131.718  -0.735  1.00  0.00     0.000 A 
ATOM     26 C19  LIG L   1      19.881 132.484  -3.180  1.00  0.00     0.000 A 
ATOM     27 C20  LIG L   1      18.008 131.610  -1.924  1.00  0.00     0.000 A 
ATOM     28 C21  LIG L   1      18.587 131.995  -3.156  1.00  0.00     0.000 A 
BRANCH   28   29
ATOM     29 C22  LIG L   1      17.895 131.879  -4.284  1.00  0.00     0.000 C 
ATOM     30  N5  LIG L   1      17.286 131.773  -5.280  1.00  0.00     0.000 NA
ENDBRANCH   28   29
ENDBRANCH   22   23
ENDBRANCH    2   22
TORSDOF 6
