REMARK  5 active torsions:
REMARK  status: ('A' for Active; 'I' for Inactive)
REMARK    1  A    between atoms: C18_2  and  C17_3 
REMARK       I    between atoms: C17_3  and  N15_25 
REMARK    2  A    between atoms: C11_8  and  N15_25 
REMARK    3  A    between atoms: C6_19  and  O7_20 
REMARK    4  A    between atoms: O7_20  and  C8_21 
REMARK    5  A    between atoms: N21_28  and  C26_30 
ROOT
HETATM    1  C13 1FN A1401      20.129  13.963  56.607  1.00 49.48     0.152 A 
HETATM    2  C11 1FN A1401      20.282  16.396  56.462  1.00 50.10     0.038 A 
HETATM    3  C12 1FN A1401      20.322  15.168  55.821  1.00 48.65     0.074 A 
HETATM    4  C8  1FN A1401      19.880  14.003  57.999  1.00 48.64     0.114 A 
HETATM    5  C9  1FN A1401      19.831  15.319  58.604  1.00 48.65     0.043 A 
HETATM    6  C10 1FN A1401      20.031  16.525  57.852  1.00 48.09     0.032 A 
HETATM    7  F14 1FN A1401      20.186  12.688  56.062  1.00 50.74    -0.203 F 
ENDROOT
BRANCH   4   8
HETATM    8  O7  1FN A1401      19.723  12.765  58.681  1.00 49.15    -0.307 OA
BRANCH   8   9
HETATM    9  C6  1FN A1401      20.862  12.285  59.479  1.00 48.43     0.087 A 
HETATM   10  C1  1FN A1401      20.499  11.333  60.574  1.00 49.28     0.021 A 
HETATM   11  C27 1FN A1401      19.229  10.748  61.060  1.00 49.96     0.065 A 
HETATM   12  C2  1FN A1401      21.549  10.871  61.351  1.00 47.87     0.110 A 
HETATM   13  C28 1FN A1401      19.686   9.913  62.175  1.00 49.39     0.126 A 
HETATM   14  N29 1FN A1401      21.112  10.028  62.329  1.00 48.38    -0.376 N 
HETATM   15  H29 1FN A1401      21.686   9.567  63.035  1.00  0.00     0.161 HD
HETATM   16  N3  1FN A1401      22.820  11.267  61.132  1.00 48.81    -0.352 N 
HETATM   17  C4  1FN A1401      23.239  12.154  60.126  1.00 49.40     0.092 A 
HETATM   18  H3  1FN A1401      23.539  10.890  61.750  1.00  0.00     0.166 HD
HETATM   19  C5  1FN A1401      22.240  12.671  59.271  1.00 49.70     0.055 A 
ENDBRANCH   8   9
ENDBRANCH   4   8
BRANCH   2  20
HETATM   20  N15 1FN A1401      20.483  17.551  55.797  1.00 53.88    -0.323 N 
HETATM   21  C17 1FN A1401      20.650  17.817  54.419  1.00 54.97     0.261 C 
HETATM   22  O19 1FN A1401      20.508  17.031  53.488  1.00 55.53    -0.267 OA
HETATM   23  H15 1FN A1401      20.521  18.378  56.393  1.00  0.00     0.169 HD
BRANCH  21  24
HETATM   24  C18 1FN A1401      20.990  19.203  54.105  1.00 54.14     0.100 A 
HETATM   25  C24 1FN A1401      21.097  19.590  52.775  1.00 53.66     0.024 A 
HETATM   26  C23 1FN A1401      21.371  20.923  52.398  1.00 53.18     0.019 A 
HETATM   27  C22 1FN A1401      21.569  21.942  53.350  1.00 50.94     0.100 A 
HETATM   28  N21 1FN A1401      21.496  21.611  54.641  1.00 49.34    -0.289 N 
HETATM   29  C20 1FN A1401      21.194  20.260  55.165  1.00 51.92     0.268 A 
HETATM   30  O25 1FN A1401      21.120  20.056  56.429  1.00 50.75    -0.267 OA
BRANCH  28  31
HETATM   31  C26 1FN A1401      21.684  22.598  55.570  1.00 46.07     0.038 A 
HETATM   32  C30 1FN A1401      22.805  22.598  56.522  1.00 43.87     0.010 A 
HETATM   33  C31 1FN A1401      22.982  23.621  57.524  1.00 43.51     0.099 A 
HETATM   34  C32 1FN A1401      21.948  24.606  57.470  1.00 44.77     0.097 A 
HETATM   35  C33 1FN A1401      20.833  24.650  56.585  1.00 43.95     0.040 A 
HETATM   36  F35 1FN A1401      22.145  25.462  58.351  1.00 46.97    -0.211 F 
HETATM   37  C34 1FN A1401      20.695  23.623  55.609  1.00 44.23     0.032 A 
ENDBRANCH  28  31
ENDBRANCH  21  24
ENDBRANCH   2  20
TORSDOF 5
