MODEL 1
REMARK VINA RESULT:   -18.936      0.000      0.000
REMARK ITER + INTRA:          -22.335
REMARK INTER:                 -20.130
REMARK INTRA:                  -2.205
REMARK CONF_INDEPENDENT:        1.193
REMARK UNBOUND:                 2.205
REMARK Flexibility Score: inf
REMARK Active torsions [ 2 ] -> [ 2 ]
ROOT
ATOM      1  C1  LIG L   1     -18.467  17.527 129.513  1.00  0.00     0.200 C 
ATOM      2  N1  LIG L   1     -19.381  18.700 129.599  1.00  0.00    -0.321 N 
ATOM      3  C2  LIG L   1     -20.343  18.866 128.619  1.00  0.00     0.041 A 
ATOM      4  C3  LIG L   1     -21.421  19.687 128.864  1.00  0.00     0.024 A 
ATOM      5  C4  LIG L   1     -22.406  19.881 127.892  1.00  0.00     0.002 A 
ATOM      6  C5  LIG L   1     -22.257  19.246 126.683  1.00  0.00     0.001 A 
ATOM      7  C6  LIG L   1     -21.158  18.406 126.426  1.00  0.00     0.015 A 
ATOM      8  C7  LIG L   1     -20.215  18.184 127.410  1.00  0.00     0.058 A 
ATOM      9  C8  LIG L   1     -19.054  17.454 127.142  1.00  0.00     0.254 C 
ATOM     10  O1  LIG L   1     -18.703  17.215 125.971  1.00  0.00    -0.270 OA
ATOM     11  N2  LIG L   1     -18.147  17.230 128.103  1.00  0.00    -0.244 N 
ATOM     12  H1  LIG L   1     -19.302  19.344 130.339  1.00  0.00     0.148 HD
ENDROOT
BRANCH    1   13
ATOM     13  C9  LIG L   1     -19.049  16.371 130.085  1.00  0.00     0.026 A 
ATOM     14  F1  LIG L   1     -17.331  16.345 131.587  1.00  0.00    -0.205 F 
ATOM     15 C10  LIG L   1     -18.401  15.797 131.170  1.00  0.00     0.130 A 
ATOM     16 C11  LIG L   1     -18.885  14.653 131.793  1.00  0.00     0.039 A 
ATOM     17 C12  LIG L   1     -20.211  15.723 129.616  1.00  0.00     0.010 A 
ATOM     18 C13  LIG L   1     -20.031  14.017 131.347  1.00  0.00     0.003 A 
ATOM     19 C14  LIG L   1     -20.714  14.575 130.267  1.00  0.00     0.001 A 
ENDBRANCH    1   13
BRANCH   11   20
ATOM     20 C15  LIG L   1     -16.919  16.798 127.778  1.00  0.00     0.039 A 
ATOM     21 C16  LIG L   1     -15.920  17.787 127.711  1.00  0.00     0.023 A 
ATOM     22 C17  LIG L   1     -16.583  15.488 127.482  1.00  0.00     0.023 A 
ATOM     23 C18  LIG L   1     -14.602  17.486 127.421  1.00  0.00     0.002 A 
ATOM     24 C19  LIG L   1     -15.241  15.182 127.154  1.00  0.00     0.002 A 
ATOM     25 C20  LIG L   1     -14.260  16.181 127.133  1.00  0.00     0.000 A 
ENDBRANCH   11   20
TORSDOF 2
REMARK Flexibility Score: inf
REMARK Active torsions [ 2 ] -> [ 2 ]
ROOT
ATOM      1  C1  LIG L   1     -11.301  13.472 131.462  1.00  0.00     0.200 C 
ATOM      2  N1  LIG L   1     -10.556  12.446 130.616  1.00  0.00    -0.321 N 
ATOM      3  C2  LIG L   1     -10.556  12.685 129.235  1.00  0.00     0.041 A 
ATOM      4  C3  LIG L   1     -10.552  11.642 128.340  1.00  0.00     0.024 A 
ATOM      5  C4  LIG L   1     -10.587  11.876 126.964  1.00  0.00     0.002 A 
ATOM      6  C5  LIG L   1     -10.644  13.169 126.523  1.00  0.00     0.001 A 
ATOM      7  C6  LIG L   1     -10.674  14.221 127.435  1.00  0.00     0.015 A 
ATOM      8  C7  LIG L   1     -10.693  13.988 128.799  1.00  0.00     0.058 A 
ATOM      9  C8  LIG L   1     -10.558  14.988 129.742  1.00  0.00     0.254 C 
ATOM     10  O1  LIG L   1      -9.918  15.981 129.437  1.00  0.00    -0.270 OA
ATOM     11  N2  LIG L   1     -10.682  14.766 131.066  1.00  0.00    -0.244 N 
ATOM     12  H1  LIG L   1     -10.105  11.667 131.014  1.00  0.00     0.148 HD
ENDROOT
BRANCH    1   13
ATOM     13  C9  LIG L   1     -12.737  13.584 131.303  1.00  0.00     0.026 A 
ATOM     14  F1  LIG L   1     -12.997  13.765 133.687  1.00  0.00    -0.205 F 
ATOM     15 C10  LIG L   1     -13.552  13.743 132.432  1.00  0.00     0.130 A 
ATOM     16 C11  LIG L   1     -14.933  13.893 132.317  1.00  0.00     0.039 A 
ATOM     17 C12  LIG L   1     -15.528  13.894 131.068  1.00  0.00     0.003 A 
ATOM     18 C13  LIG L   1     -13.371  13.593 130.045  1.00  0.00     0.010 A 
ATOM     19 C14  LIG L   1     -14.743  13.726 129.931  1.00  0.00     0.001 A 
ENDBRANCH    1   13
BRANCH   11   20
ATOM     20 C15  LIG L   1     -10.244  15.615 132.018  1.00  0.00     0.039 A 
ATOM     21 C16  LIG L   1     -11.072  16.016 133.065  1.00  0.00     0.023 A 
ATOM     22 C17  LIG L   1      -8.898  16.011 132.041  1.00  0.00     0.023 A 
ATOM     23 C18  LIG L   1     -10.555  16.832 134.082  1.00  0.00     0.002 A 
ATOM     24 C19  LIG L   1      -8.380  16.845 133.031  1.00  0.00     0.002 A 
ATOM     25 C20  LIG L   1      -9.214  17.272 134.058  1.00  0.00     0.000 A 
ENDBRANCH   11   20
TORSDOF 2
ENDMDL
MODEL 2
REMARK VINA RESULT:   -18.616      1.634      3.349
REMARK ITER + INTRA:          -22.043
REMARK INTER:                 -19.809
REMARK INTRA:                  -2.234
REMARK CONF_INDEPENDENT:        1.193
REMARK UNBOUND:                 2.234
REMARK Flexibility Score: inf
REMARK Active torsions [ 2 ] -> [ 2 ]
ROOT
ATOM      1  C1  LIG L   1     -18.870  17.850 129.185  1.00  0.00     0.200 C 
ATOM      2  N1  LIG L   1     -19.762  19.042 129.149  1.00  0.00    -0.321 N 
ATOM      3  C2  LIG L   1     -20.699  19.141 128.136  1.00  0.00     0.041 A 
ATOM      4  C3  LIG L   1     -21.766  19.999 128.287  1.00  0.00     0.024 A 
ATOM      5  C4  LIG L   1     -22.727  20.127 127.279  1.00  0.00     0.002 A 
ATOM      6  C5  LIG L   1     -22.565  19.387 126.132  1.00  0.00     0.001 A 
ATOM      7  C6  LIG L   1     -21.478  18.508 125.973  1.00  0.00     0.015 A 
ATOM      8  C7  LIG L   1     -20.560  18.355 126.993  1.00  0.00     0.058 A 
ATOM      9  C8  LIG L   1     -19.409  17.584 126.815  1.00  0.00     0.254 C 
ATOM     10  O1  LIG L   1     -19.038  17.238 125.678  1.00  0.00    -0.270 OA
ATOM     11  N2  LIG L   1     -18.527  17.427 127.813  1.00  0.00    -0.244 N 
ATOM     12  H1  LIG L   1     -19.686  19.747 129.832  1.00  0.00     0.148 HD
ENDROOT
BRANCH    1   13
ATOM     13  C9  LIG L   1     -19.487  16.758 129.840  1.00  0.00     0.026 A 
ATOM     14  F1  LIG L   1     -19.083  17.819 131.819  1.00  0.00    -0.205 F 
ATOM     15 C10  LIG L   1     -19.564  16.803 131.226  1.00  0.00     0.130 A 
ATOM     16 C11  LIG L   1     -20.139  15.774 131.962  1.00  0.00     0.039 A 
ATOM     17 C12  LIG L   1     -19.991  15.603 129.206  1.00  0.00     0.010 A 
ATOM     18 C13  LIG L   1     -20.647  14.642 131.348  1.00  0.00     0.003 A 
ATOM     19 C14  LIG L   1     -20.598  14.571 129.956  1.00  0.00     0.001 A 
ENDBRANCH    1   13
BRANCH   11   20
ATOM     20 C15  LIG L   1     -17.301  16.946 127.554  1.00  0.00     0.039 A 
ATOM     21 C16  LIG L   1     -16.293  17.910 127.366  1.00  0.00     0.023 A 
ATOM     22 C17  LIG L   1     -16.975  15.607 127.432  1.00  0.00     0.023 A 
ATOM     23 C18  LIG L   1     -14.977  17.563 127.125  1.00  0.00     0.002 A 
ATOM     24 C19  LIG L   1     -15.635  15.249 127.154  1.00  0.00     0.002 A 
ATOM     25 C20  LIG L   1     -14.645  16.229 127.011  1.00  0.00     0.000 A 
ENDBRANCH   11   20
TORSDOF 2
REMARK Flexibility Score: inf
REMARK Active torsions [ 2 ] -> [ 2 ]
ROOT
ATOM      1  C1  LIG L   1     -12.594  15.885 130.307  1.00  0.00     0.200 C 
ATOM      2  N1  LIG L   1     -14.038  16.351 130.455  1.00  0.00    -0.321 N 
ATOM      3  C2  LIG L   1     -14.929  15.404 130.979  1.00  0.00     0.041 A 
ATOM      4  C3  LIG L   1     -16.245  15.381 130.584  1.00  0.00     0.024 A 
ATOM      5  C4  LIG L   1     -17.126  14.417 131.077  1.00  0.00     0.002 A 
ATOM      6  C5  LIG L   1     -16.647  13.482 131.953  1.00  0.00     0.001 A 
ATOM      7  C6  LIG L   1     -15.308  13.496 132.331  1.00  0.00     0.015 A 
ATOM      8  C7  LIG L   1     -14.421  14.418 131.802  1.00  0.00     0.058 A 
ATOM      9  C8  LIG L   1     -13.129  14.578 132.261  1.00  0.00     0.254 C 
ATOM     10  O1  LIG L   1     -12.898  14.313 133.429  1.00  0.00    -0.270 OA
ATOM     11  N2  LIG L   1     -12.241  15.405 131.671  1.00  0.00    -0.244 N 
ATOM     12  H1  LIG L   1     -14.325  17.257 130.199  1.00  0.00     0.148 HD
ENDROOT
BRANCH    1   13
ATOM     13  C9  LIG L   1     -12.305  14.828 129.359  1.00  0.00     0.026 A 
ATOM     14  F1  LIG L   1     -10.108  15.738 129.000  1.00  0.00    -0.205 F 
ATOM     15 C10  LIG L   1     -11.050  14.776 128.736  1.00  0.00     0.130 A 
ATOM     16 C11  LIG L   1     -10.721  13.753 127.849  1.00  0.00     0.039 A 
ATOM     17 C12  LIG L   1     -11.638  12.755 127.572  1.00  0.00     0.003 A 
ATOM     18 C13  LIG L   1     -13.216  13.796 129.060  1.00  0.00     0.010 A 
ATOM     19 C14  LIG L   1     -12.895  12.790 128.168  1.00  0.00     0.001 A 
ENDBRANCH    1   13
BRANCH   11   20
ATOM     20 C15  LIG L   1     -11.106  15.837 132.258  1.00  0.00     0.039 A 
ATOM     21 C16  LIG L   1      -9.858  15.569 131.701  1.00  0.00     0.023 A 
ATOM     22 C17  LIG L   1     -11.172  16.679 133.379  1.00  0.00     0.023 A 
ATOM     23 C18  LIG L   1      -8.706  16.107 132.295  1.00  0.00     0.002 A 
ATOM     24 C19  LIG L   1     -10.033  17.196 133.994  1.00  0.00     0.002 A 
ATOM     25 C20  LIG L   1      -8.784  16.903 133.458  1.00  0.00     0.000 A 
ENDBRANCH   11   20
TORSDOF 2
ENDMDL
MODEL 3
REMARK VINA RESULT:   -18.405      1.413      3.312
REMARK ITER + INTRA:          -21.830
REMARK INTER:                 -19.598
REMARK INTRA:                  -2.232
REMARK CONF_INDEPENDENT:        1.193
REMARK UNBOUND:                 2.232
REMARK Flexibility Score: inf
REMARK Active torsions [ 2 ] -> [ 2 ]
ROOT
ATOM      1  C1  LIG L   1     -18.962  16.270 127.588  1.00  0.00     0.200 C 
ATOM      2  N1  LIG L   1     -19.664  15.110 128.202  1.00  0.00    -0.321 N 
ATOM      3  C2  LIG L   1     -19.633  14.966 129.577  1.00  0.00     0.041 A 
ATOM      4  C3  LIG L   1     -20.564  14.158 130.192  1.00  0.00     0.024 A 
ATOM      5  C4  LIG L   1     -20.555  13.986 131.579  1.00  0.00     0.002 A 
ATOM      6  C5  LIG L   1     -19.583  14.631 132.306  1.00  0.00     0.001 A 
ATOM      7  C6  LIG L   1     -18.630  15.458 131.684  1.00  0.00     0.015 A 
ATOM      8  C7  LIG L   1     -18.676  15.658 130.318  1.00  0.00     0.058 A 
ATOM      9  C8  LIG L   1     -17.672  16.374 129.662  1.00  0.00     0.254 C 
ATOM     10  O1  LIG L   1     -16.588  16.620 130.223  1.00  0.00    -0.270 OA
ATOM     11  N2  LIG L   1     -17.728  16.576 128.338  1.00  0.00    -0.244 N 
ATOM     12  H1  LIG L   1     -20.140  14.457 127.640  1.00  0.00     0.148 HD
ENDROOT
BRANCH    1   13
ATOM     13  C9  LIG L   1     -19.774  17.429 127.586  1.00  0.00     0.026 A 
ATOM     14  F1  LIG L   1     -19.814  17.303 125.309  1.00  0.00    -0.205 F 
ATOM     15 C10  LIG L   1     -20.186  17.922 126.355  1.00  0.00     0.130 A 
ATOM     16 C11  LIG L   1     -20.975  19.061 126.248  1.00  0.00     0.039 A 
ATOM     17 C12  LIG L   1     -20.165  18.155 128.732  1.00  0.00     0.010 A 
ATOM     18 C13  LIG L   1     -21.373  19.772 127.366  1.00  0.00     0.003 A 
ATOM     19 C14  LIG L   1     -20.988  19.297 128.619  1.00  0.00     0.001 A 
ENDBRANCH    1   13
BRANCH   11   20
ATOM     20 C15  LIG L   1     -16.637  16.996 127.678  1.00  0.00     0.039 A 
ATOM     21 C16  LIG L   1     -15.643  16.023 127.459  1.00  0.00     0.023 A 
ATOM     22 C17  LIG L   1     -16.414  18.288 127.237  1.00  0.00     0.023 A 
ATOM     23 C18  LIG L   1     -14.480  16.299 126.765  1.00  0.00     0.002 A 
ATOM     24 C19  LIG L   1     -15.210  18.582 126.554  1.00  0.00     0.002 A 
ATOM     25 C20  LIG L   1     -14.257  17.585 126.316  1.00  0.00     0.000 A 
ENDBRANCH   11   20
TORSDOF 2
REMARK Flexibility Score: inf
REMARK Active torsions [ 2 ] -> [ 2 ]
ROOT
ATOM      1  C1  LIG L   1     -11.430  13.427 131.317  1.00  0.00     0.200 C 
ATOM      2  N1  LIG L   1     -10.626  12.428 130.494  1.00  0.00    -0.321 N 
ATOM      3  C2  LIG L   1     -10.556  12.693 129.119  1.00  0.00     0.041 A 
ATOM      4  C3  LIG L   1     -10.489  11.667 128.206  1.00  0.00     0.024 A 
ATOM      5  C4  LIG L   1     -10.455  11.927 126.836  1.00  0.00     0.002 A 
ATOM      6  C5  LIG L   1     -10.507  13.228 126.416  1.00  0.00     0.001 A 
ATOM      7  C6  LIG L   1     -10.600  14.261 127.344  1.00  0.00     0.015 A 
ATOM      8  C7  LIG L   1     -10.687  14.002 128.701  1.00  0.00     0.058 A 
ATOM      9  C8  LIG L   1     -10.617  14.986 129.668  1.00  0.00     0.254 C 
ATOM     10  O1  LIG L   1      -9.976  15.993 129.416  1.00  0.00    -0.270 OA
ATOM     11  N2  LIG L   1     -10.808  14.737 130.979  1.00  0.00    -0.244 N 
ATOM     12  H1  LIG L   1     -10.186  11.647 130.900  1.00  0.00     0.148 HD
ENDROOT
BRANCH    1   13
ATOM     13  C9  LIG L   1     -12.856  13.524 131.084  1.00  0.00     0.026 A 
ATOM     14  F1  LIG L   1     -13.241  13.707 133.451  1.00  0.00    -0.205 F 
ATOM     15 C10  LIG L   1     -13.730  13.677 132.169  1.00  0.00     0.130 A 
ATOM     16 C11  LIG L   1     -15.105  13.812 131.982  1.00  0.00     0.039 A 
ATOM     17 C12  LIG L   1     -15.634  13.804 130.704  1.00  0.00     0.003 A 
ATOM     18 C13  LIG L   1     -13.424  13.523 129.794  1.00  0.00     0.010 A 
ATOM     19 C14  LIG L   1     -14.790  13.642 129.610  1.00  0.00     0.001 A 
ENDBRANCH    1   13
BRANCH   11   20
ATOM     20 C15  LIG L   1     -10.433  15.573 131.969  1.00  0.00     0.039 A 
ATOM     21 C16  LIG L   1     -11.356  16.057 132.893  1.00  0.00     0.023 A 
ATOM     22 C17  LIG L   1      -9.075  15.870 132.162  1.00  0.00     0.023 A 
ATOM     23 C18  LIG L   1     -10.914  16.857 133.958  1.00  0.00     0.002 A 
ATOM     24 C19  LIG L   1      -8.628  16.686 133.199  1.00  0.00     0.002 A 
ATOM     25 C20  LIG L   1      -9.552  17.196 134.104  1.00  0.00     0.000 A 
ENDBRANCH   11   20
TORSDOF 2
ENDMDL
MODEL 4
REMARK VINA RESULT:   -18.236      1.341      3.921
REMARK ITER + INTRA:          -21.836
REMARK INTER:                 -19.429
REMARK INTRA:                  -2.407
REMARK CONF_INDEPENDENT:        1.193
REMARK UNBOUND:                 2.407
REMARK Flexibility Score: inf
REMARK Active torsions [ 2 ] -> [ 2 ]
ROOT
ATOM      1  C1  LIG L   1     -19.042  18.058 129.197  1.00  0.00     0.200 C 
ATOM      2  N1  LIG L   1     -19.995  19.201 129.254  1.00  0.00    -0.321 N 
ATOM      3  C2  LIG L   1     -20.983  19.291 128.290  1.00  0.00     0.041 A 
ATOM      4  C3  LIG L   1     -22.084  20.084 128.526  1.00  0.00     0.024 A 
ATOM      5  C4  LIG L   1     -23.097  20.201 127.569  1.00  0.00     0.002 A 
ATOM      6  C5  LIG L   1     -22.951  19.520 126.384  1.00  0.00     0.001 A 
ATOM      7  C6  LIG L   1     -21.828  18.708 126.138  1.00  0.00     0.015 A 
ATOM      8  C7  LIG L   1     -20.857  18.562 127.108  1.00  0.00     0.058 A 
ATOM      9  C8  LIG L   1     -19.677  17.862 126.845  1.00  0.00     0.254 C 
ATOM     10  O1  LIG L   1     -19.343  17.584 125.678  1.00  0.00    -0.270 OA
ATOM     11  N2  LIG L   1     -18.743  17.711 127.794  1.00  0.00    -0.244 N 
ATOM     12  H1  LIG L   1     -19.923  19.879 129.964  1.00  0.00     0.148 HD
ENDROOT
BRANCH    1   13
ATOM     13  C9  LIG L   1     -19.569  16.908 129.831  1.00  0.00     0.026 A 
ATOM     14  F1  LIG L   1     -19.200  17.937 131.833  1.00  0.00    -0.205 F 
ATOM     15 C10  LIG L   1     -19.622  16.907 131.218  1.00  0.00     0.130 A 
ATOM     16 C11  LIG L   1     -20.111  15.821 131.934  1.00  0.00     0.039 A 
ATOM     17 C12  LIG L   1     -20.006  15.739 129.172  1.00  0.00     0.010 A 
ATOM     18 C13  LIG L   1     -20.552  14.675 131.295  1.00  0.00     0.003 A 
ATOM     19 C14  LIG L   1     -20.526  14.647 129.901  1.00  0.00     0.001 A 
ENDBRANCH    1   13
BRANCH   11   20
ATOM     20 C15  LIG L   1     -17.507  17.308 127.459  1.00  0.00     0.039 A 
ATOM     21 C16  LIG L   1     -16.521  18.313 127.434  1.00  0.00     0.023 A 
ATOM     22 C17  LIG L   1     -17.151  16.015 127.117  1.00  0.00     0.023 A 
ATOM     23 C18  LIG L   1     -15.198  18.041 127.139  1.00  0.00     0.002 A 
ATOM     24 C19  LIG L   1     -15.804  15.739 126.785  1.00  0.00     0.002 A 
ATOM     25 C20  LIG L   1     -14.837  16.752 126.805  1.00  0.00     0.000 A 
ENDBRANCH   11   20
TORSDOF 2
REMARK Flexibility Score: inf
REMARK Active torsions [ 2 ] -> [ 2 ]
ROOT
ATOM      1  C1  LIG L   1     -12.110  13.230 131.077  1.00  0.00     0.200 C 
ATOM      2  N1  LIG L   1     -13.450  12.834 131.686  1.00  0.00    -0.321 N 
ATOM      3  C2  LIG L   1     -14.531  13.665 131.363  1.00  0.00     0.041 A 
ATOM      4  C3  LIG L   1     -15.552  13.874 132.259  1.00  0.00     0.024 A 
ATOM      5  C4  LIG L   1     -16.612  14.728 131.953  1.00  0.00     0.002 A 
ATOM      6  C5  LIG L   1     -16.607  15.369 130.745  1.00  0.00     0.001 A 
ATOM      7  C6  LIG L   1     -15.558  15.172 129.851  1.00  0.00     0.015 A 
ATOM      8  C7  LIG L   1     -14.480  14.367 130.175  1.00  0.00     0.058 A 
ATOM      9  C8  LIG L   1     -13.500  14.010 129.269  1.00  0.00     0.254 C 
ATOM     10  O1  LIG L   1     -13.805  13.946 128.090  1.00  0.00    -0.270 OA
ATOM     11  N2  LIG L   1     -12.400  13.313 129.619  1.00  0.00    -0.244 N 
ATOM     12  H1  LIG L   1     -13.549  12.047 132.269  1.00  0.00     0.148 HD
ENDROOT
BRANCH    1   13
ATOM     13  C9  LIG L   1     -11.504  14.477 131.496  1.00  0.00     0.026 A 
ATOM     14  F1  LIG L   1     -12.531  14.262 133.660  1.00  0.00    -0.205 F 
ATOM     15 C10  LIG L   1     -11.723  14.956 132.795  1.00  0.00     0.130 A 
ATOM     16 C11  LIG L   1     -11.126  16.132 133.246  1.00  0.00     0.039 A 
ATOM     17 C12  LIG L   1     -10.290  16.850 132.410  1.00  0.00     0.003 A 
ATOM     18 C13  LIG L   1     -10.646  15.228 130.668  1.00  0.00     0.010 A 
ATOM     19 C14  LIG L   1     -10.066  16.403 131.112  1.00  0.00     0.001 A 
ENDBRANCH    1   13
BRANCH   11   20
ATOM     20 C15  LIG L   1     -11.602  12.671 128.742  1.00  0.00     0.039 A 
ATOM     21 C16  LIG L   1     -11.080  13.325 127.629  1.00  0.00     0.023 A 
ATOM     22 C17  LIG L   1     -11.177  11.360 129.008  1.00  0.00     0.023 A 
ATOM     23 C18  LIG L   1     -10.186  12.648 126.785  1.00  0.00     0.002 A 
ATOM     24 C19  LIG L   1     -10.312  10.668 128.162  1.00  0.00     0.002 A 
ATOM     25 C20  LIG L   1      -9.816  11.309 127.032  1.00  0.00     0.000 A 
ENDBRANCH   11   20
TORSDOF 2
ENDMDL
MODEL 5
REMARK VINA RESULT:   -18.032      1.599      9.262
REMARK ITER + INTRA:          -21.752
REMARK INTER:                 -19.226
REMARK INTRA:                  -2.527
REMARK CONF_INDEPENDENT:        1.193
REMARK UNBOUND:                 2.527
REMARK Flexibility Score: inf
REMARK Active torsions [ 2 ] -> [ 2 ]
ROOT
ATOM      1  C1  LIG L   1     -12.095  13.290 131.051  1.00  0.00     0.200 C 
ATOM      2  N1  LIG L   1     -11.427  12.112 130.432  1.00  0.00    -0.321 N 
ATOM      3  C2  LIG L   1     -11.100  12.164 129.089  1.00  0.00     0.041 A 
ATOM      4  C3  LIG L   1     -10.163  11.287 128.589  1.00  0.00     0.024 A 
ATOM      5  C4  LIG L   1      -9.816  11.309 127.235  1.00  0.00     0.002 A 
ATOM      6  C5  LIG L   1     -10.448  12.216 126.418  1.00  0.00     0.001 A 
ATOM      7  C6  LIG L   1     -11.406  13.115 126.924  1.00  0.00     0.015 A 
ATOM      8  C7  LIG L   1     -11.707  13.115 128.271  1.00  0.00     0.058 A 
ATOM      9  C8  LIG L   1     -12.739  13.911 128.777  1.00  0.00     0.254 C 
ATOM     10  O1  LIG L   1     -13.580  14.428 128.018  1.00  0.00    -0.270 OA
ATOM     11  N2  LIG L   1     -13.019  13.919 130.087  1.00  0.00    -0.244 N 
ATOM     12  H1  LIG L   1     -11.222  11.312 130.968  1.00  0.00     0.148 HD
ENDROOT
BRANCH    1   13
ATOM     13  C9  LIG L   1     -11.157  14.266 131.461  1.00  0.00     0.026 A 
ATOM     14  F1  LIG L   1     -12.406  14.562 133.348  1.00  0.00    -0.205 F 
ATOM     15 C10  LIG L   1     -11.379  14.899 132.677  1.00  0.00     0.130 A 
ATOM     16 C11  LIG L   1     -10.522  15.880 133.161  1.00  0.00     0.039 A 
ATOM     17 C12  LIG L   1     -10.034  14.684 130.716  1.00  0.00     0.010 A 
ATOM     18 C13  LIG L   1      -9.413  16.289 132.442  1.00  0.00     0.003 A 
ATOM     19 C14  LIG L   1      -9.151  15.664 131.223  1.00  0.00     0.001 A 
ENDBRANCH    1   13
BRANCH   11   20
ATOM     20 C15  LIG L   1     -14.178  14.441 130.521  1.00  0.00     0.039 A 
ATOM     21 C16  LIG L   1     -15.228  13.523 130.711  1.00  0.00     0.023 A 
ATOM     22 C17  LIG L   1     -14.412  15.783 130.759  1.00  0.00     0.023 A 
ATOM     23 C18  LIG L   1     -16.468  13.910 131.185  1.00  0.00     0.002 A 
ATOM     24 C19  LIG L   1     -15.689  16.187 131.215  1.00  0.00     0.002 A 
ATOM     25 C20  LIG L   1     -16.705  15.247 131.432  1.00  0.00     0.000 A 
ENDBRANCH   11   20
TORSDOF 2
REMARK Flexibility Score: inf
REMARK Active torsions [ 2 ] -> [ 2 ]
ROOT
ATOM      1  C1  LIG L   1     -18.526  18.192 128.899  1.00  0.00     0.200 C 
ATOM      2  N1  LIG L   1     -18.784  17.799 130.348  1.00  0.00    -0.321 N 
ATOM      3  C2  LIG L   1     -19.483  16.599 130.536  1.00  0.00     0.041 A 
ATOM      4  C3  LIG L   1     -20.333  16.439 131.603  1.00  0.00     0.024 A 
ATOM      5  C4  LIG L   1     -21.058  15.258 131.773  1.00  0.00     0.002 A 
ATOM      6  C5  LIG L   1     -20.918  14.266 130.842  1.00  0.00     0.001 A 
ATOM      7  C6  LIG L   1     -20.074  14.444 129.749  1.00  0.00     0.015 A 
ATOM      8  C7  LIG L   1     -19.396  15.634 129.551  1.00  0.00     0.058 A 
ATOM      9  C8  LIG L   1     -18.428  15.805 128.581  1.00  0.00     0.254 C 
ATOM     10  O1  LIG L   1     -17.786  14.828 128.234  1.00  0.00    -0.270 OA
ATOM     11  N2  LIG L   1     -17.848  16.996 128.328  1.00  0.00    -0.244 N 
ATOM     12  H1  LIG L   1     -18.479  18.352 131.103  1.00  0.00     0.148 HD
ENDROOT
BRANCH    1   13
ATOM     13  C9  LIG L   1     -19.662  18.519 128.061  1.00  0.00     0.026 A 
ATOM     14  F1  LIG L   1     -20.461  20.059 129.726  1.00  0.00    -0.205 F 
ATOM     15 C10  LIG L   1     -20.600  19.464 128.497  1.00  0.00     0.130 A 
ATOM     16 C11  LIG L   1     -21.684  19.833 127.702  1.00  0.00     0.039 A 
ATOM     17 C12  LIG L   1     -21.849  19.269 126.450  1.00  0.00     0.003 A 
ATOM     18 C13  LIG L   1     -19.854  17.965 126.780  1.00  0.00     0.010 A 
ATOM     19 C14  LIG L   1     -20.938  18.319 125.998  1.00  0.00     0.001 A 
ENDBRANCH    1   13
BRANCH   11   20
ATOM     20 C15  LIG L   1     -16.697  17.145 127.642  1.00  0.00     0.039 A 
ATOM     21 C16  LIG L   1     -16.652  16.969 126.260  1.00  0.00     0.023 A 
ATOM     22 C17  LIG L   1     -15.544  17.607 128.295  1.00  0.00     0.023 A 
ATOM     23 C18  LIG L   1     -15.455  17.215 125.571  1.00  0.00     0.002 A 
ATOM     24 C19  LIG L   1     -14.342  17.827 127.626  1.00  0.00     0.002 A 
ATOM     25 C20  LIG L   1     -14.287  17.621 126.252  1.00  0.00     0.000 A 
ENDBRANCH   11   20
TORSDOF 2
ENDMDL
MODEL 6
REMARK VINA RESULT:   -17.927      1.631      9.166
REMARK ITER + INTRA:          -21.528
REMARK INTER:                 -19.120
REMARK INTRA:                  -2.408
REMARK CONF_INDEPENDENT:        1.193
REMARK UNBOUND:                 2.408
REMARK Flexibility Score: inf
REMARK Active torsions [ 2 ] -> [ 2 ]
ROOT
ATOM      1  C1  LIG L   1     -11.759  15.511 129.655  1.00  0.00     0.200 C 
ATOM      2  N1  LIG L   1     -11.394  14.974 128.314  1.00  0.00    -0.321 N 
ATOM      3  C2  LIG L   1     -11.122  13.624 128.190  1.00  0.00     0.041 A 
ATOM      4  C3  LIG L   1     -11.165  13.039 126.945  1.00  0.00     0.024 A 
ATOM      5  C4  LIG L   1     -10.888  11.678 126.785  1.00  0.00     0.002 A 
ATOM      6  C5  LIG L   1     -10.556  10.949 127.902  1.00  0.00     0.001 A 
ATOM      7  C6  LIG L   1     -10.512  11.541 129.178  1.00  0.00     0.015 A 
ATOM      8  C7  LIG L   1     -10.832  12.875 129.330  1.00  0.00     0.058 A 
ATOM      9  C8  LIG L   1     -10.679  13.515 130.563  1.00  0.00     0.254 C 
ATOM     10  O1  LIG L   1     -10.010  12.996 131.476  1.00  0.00    -0.270 OA
ATOM     11  N2  LIG L   1     -11.003  14.807 130.710  1.00  0.00    -0.244 N 
ATOM     12  H1  LIG L   1     -11.347  15.569 127.531  1.00  0.00     0.148 HD
ENDROOT
BRANCH    1   13
ATOM     13  C9  LIG L   1     -13.139  15.352 129.922  1.00  0.00     0.026 A 
ATOM     14  F1  LIG L   1     -12.960  17.045 131.440  1.00  0.00    -0.205 F 
ATOM     15 C10  LIG L   1     -13.708  16.188 130.873  1.00  0.00     0.130 A 
ATOM     16 C11  LIG L   1     -15.053  16.101 131.215  1.00  0.00     0.039 A 
ATOM     17 C12  LIG L   1     -13.979  14.382 129.335  1.00  0.00     0.010 A 
ATOM     18 C13  LIG L   1     -15.887  15.161 130.636  1.00  0.00     0.003 A 
ATOM     19 C14  LIG L   1     -15.350  14.314 129.667  1.00  0.00     0.001 A 
ENDBRANCH    1   13
BRANCH   11   20
ATOM     20 C15  LIG L   1     -10.583  15.485 131.790  1.00  0.00     0.039 A 
ATOM     21 C16  LIG L   1      -9.498  16.358 131.579  1.00  0.00     0.023 A 
ATOM     22 C17  LIG L   1     -11.106  15.366 133.065  1.00  0.00     0.023 A 
ATOM     23 C18  LIG L   1      -8.979  17.145 132.590  1.00  0.00     0.002 A 
ATOM     24 C19  LIG L   1     -10.557  16.147 134.108  1.00  0.00     0.002 A 
ATOM     25 C20  LIG L   1      -9.503  17.036 133.861  1.00  0.00     0.000 A 
ENDBRANCH   11   20
TORSDOF 2
REMARK Flexibility Score: inf
REMARK Active torsions [ 2 ] -> [ 2 ]
ROOT
ATOM      1  C1  LIG L   1     -18.366  18.276 129.364  1.00  0.00     0.200 C 
ATOM      2  N1  LIG L   1     -18.535  17.661 130.748  1.00  0.00    -0.321 N 
ATOM      3  C2  LIG L   1     -19.320  16.502 130.804  1.00  0.00     0.041 A 
ATOM      4  C3  LIG L   1     -20.089  16.223 131.909  1.00  0.00     0.024 A 
ATOM      5  C4  LIG L   1     -20.899  15.088 131.952  1.00  0.00     0.002 A 
ATOM      6  C5  LIG L   1     -20.925  14.262 130.862  1.00  0.00     0.001 A 
ATOM      7  C6  LIG L   1     -20.163  14.562 129.737  1.00  0.00     0.015 A 
ATOM      8  C7  LIG L   1     -19.401  15.715 129.671  1.00  0.00     0.058 A 
ATOM      9  C8  LIG L   1     -18.506  15.978 128.652  1.00  0.00     0.254 C 
ATOM     10  O1  LIG L   1     -17.984  15.030 128.090  1.00  0.00    -0.270 OA
ATOM     11  N2  LIG L   1     -17.846  17.149 128.542  1.00  0.00    -0.244 N 
ATOM     12  H1  LIG L   1     -18.121  18.053 131.551  1.00  0.00     0.148 HD
ENDROOT
BRANCH    1   13
ATOM     13  C9  LIG L   1     -19.534  18.824 128.706  1.00  0.00     0.026 A 
ATOM     14  F1  LIG L   1     -19.750  20.477 130.439  1.00  0.00    -0.205 F 
ATOM     15 C10  LIG L   1     -20.192  19.930 129.261  1.00  0.00     0.130 A 
ATOM     16 C11  LIG L   1     -21.296  20.508 128.636  1.00  0.00     0.039 A 
ATOM     17 C12  LIG L   1     -21.760  19.997 127.437  1.00  0.00     0.003 A 
ATOM     18 C13  LIG L   1     -20.027  18.327 127.483  1.00  0.00     0.010 A 
ATOM     19 C14  LIG L   1     -21.132  18.892 126.871  1.00  0.00     0.001 A 
ENDBRANCH    1   13
BRANCH   11   20
ATOM     20 C15  LIG L   1     -16.748  17.328 127.781  1.00  0.00     0.039 A 
ATOM     21 C16  LIG L   1     -15.512  17.621 128.355  1.00  0.00     0.023 A 
ATOM     22 C17  LIG L   1     -16.805  17.094 126.399  1.00  0.00     0.023 A 
ATOM     23 C18  LIG L   1     -14.376  17.716 127.537  1.00  0.00     0.002 A 
ATOM     24 C19  LIG L   1     -15.688  17.215 125.573  1.00  0.00     0.002 A 
ATOM     25 C20  LIG L   1     -14.461  17.539 126.140  1.00  0.00     0.000 A 
ENDBRANCH   11   20
TORSDOF 2
ENDMDL
MODEL 7
REMARK VINA RESULT:   -17.838      1.928      4.933
REMARK ITER + INTRA:          -21.337
REMARK INTER:                 -19.031
REMARK INTRA:                  -2.306
REMARK CONF_INDEPENDENT:        1.193
REMARK UNBOUND:                 2.306
REMARK Flexibility Score: inf
REMARK Active torsions [ 2 ] -> [ 2 ]
ROOT
ATOM      1  C1  LIG L   1     -20.016  16.611 127.901  1.00  0.00     0.200 C 
ATOM      2  N1  LIG L   1     -18.950  15.933 127.113  1.00  0.00    -0.321 N 
ATOM      3  C2  LIG L   1     -17.661  16.432 127.171  1.00  0.00     0.041 A 
ATOM      4  C3  LIG L   1     -16.610  15.630 126.785  1.00  0.00     0.024 A 
ATOM      5  C4  LIG L   1     -15.296  16.107 126.825  1.00  0.00     0.002 A 
ATOM      6  C5  LIG L   1     -15.089  17.400 127.242  1.00  0.00     0.001 A 
ATOM      7  C6  LIG L   1     -16.159  18.224 127.638  1.00  0.00     0.015 A 
ATOM      8  C7  LIG L   1     -17.447  17.728 127.639  1.00  0.00     0.058 A 
ATOM      9  C8  LIG L   1     -18.538  18.558 127.910  1.00  0.00     0.254 C 
ATOM     10  O1  LIG L   1     -18.419  19.798 127.893  1.00  0.00    -0.270 OA
ATOM     11  N2  LIG L   1     -19.786  18.070 127.922  1.00  0.00    -0.244 N 
ATOM     12  H1  LIG L   1     -19.158  15.144 126.562  1.00  0.00     0.148 HD
ENDROOT
BRANCH    1   13
ATOM     13  C9  LIG L   1     -20.048  16.152 129.238  1.00  0.00     0.026 A 
ATOM     14  F1  LIG L   1     -20.785  14.142 128.448  1.00  0.00    -0.205 F 
ATOM     15 C10  LIG L   1     -20.464  14.846 129.458  1.00  0.00     0.130 A 
ATOM     16 C11  LIG L   1     -20.542  14.305 130.736  1.00  0.00     0.039 A 
ATOM     17 C12  LIG L   1     -19.736  16.926 130.376  1.00  0.00     0.010 A 
ATOM     18 C13  LIG L   1     -20.226  15.053 131.857  1.00  0.00     0.003 A 
ATOM     19 C14  LIG L   1     -19.792  16.365 131.671  1.00  0.00     0.001 A 
ENDBRANCH    1   13
BRANCH   11   20
ATOM     20 C15  LIG L   1     -20.834  18.908 127.886  1.00  0.00     0.039 A 
ATOM     21 C16  LIG L   1     -21.513  18.985 126.655  1.00  0.00     0.023 A 
ATOM     22 C17  LIG L   1     -21.262  19.701 128.935  1.00  0.00     0.023 A 
ATOM     23 C18  LIG L   1     -22.630  19.780 126.477  1.00  0.00     0.002 A 
ATOM     24 C19  LIG L   1     -22.387  20.539 128.748  1.00  0.00     0.002 A 
ATOM     25 C20  LIG L   1     -23.066  20.567 127.523  1.00  0.00     0.000 A 
ENDBRANCH   11   20
TORSDOF 2
REMARK Flexibility Score: inf
REMARK Active torsions [ 2 ] -> [ 2 ]
ROOT
ATOM      1  C1  LIG L   1     -12.308  15.788 130.224  1.00  0.00     0.200 C 
ATOM      2  N1  LIG L   1     -13.728  16.332 130.128  1.00  0.00    -0.321 N 
ATOM      3  C2  LIG L   1     -14.733  15.493 130.628  1.00  0.00     0.041 A 
ATOM      4  C3  LIG L   1     -15.987  15.483 130.067  1.00  0.00     0.024 A 
ATOM      5  C4  LIG L   1     -16.979  14.623 130.540  1.00  0.00     0.002 A 
ATOM      6  C5  LIG L   1     -16.672  13.775 131.569  1.00  0.00     0.001 A 
ATOM      7  C6  LIG L   1     -15.393  13.772 132.117  1.00  0.00     0.015 A 
ATOM      8  C7  LIG L   1     -14.393  14.586 131.613  1.00  0.00     0.058 A 
ATOM      9  C8  LIG L   1     -13.162  14.741 132.220  1.00  0.00     0.254 C 
ATOM     10  O1  LIG L   1     -13.098  14.602 133.430  1.00  0.00    -0.270 OA
ATOM     11  N2  LIG L   1     -12.159  15.453 131.667  1.00  0.00    -0.244 N 
ATOM     12  H1  LIG L   1     -13.927  17.214 129.739  1.00  0.00     0.148 HD
ENDROOT
BRANCH    1   13
ATOM     13  C9  LIG L   1     -11.963  14.617 129.444  1.00  0.00     0.026 A 
ATOM     14  F1  LIG L   1     -12.485  15.801 127.417  1.00  0.00    -0.205 F 
ATOM     15 C10  LIG L   1     -12.049  14.662 128.045  1.00  0.00     0.130 A 
ATOM     16 C11  LIG L   1     -11.690  13.568 127.260  1.00  0.00     0.039 A 
ATOM     17 C12  LIG L   1     -11.228  12.408 127.856  1.00  0.00     0.003 A 
ATOM     18 C13  LIG L   1     -11.486  13.424 130.022  1.00  0.00     0.010 A 
ATOM     19 C14  LIG L   1     -11.144  12.334 129.243  1.00  0.00     0.001 A 
ENDBRANCH    1   13
BRANCH   11   20
ATOM     20 C15  LIG L   1     -11.085  15.899 132.349  1.00  0.00     0.039 A 
ATOM     21 C16  LIG L   1      -9.792  15.703 131.867  1.00  0.00     0.023 A 
ATOM     22 C17  LIG L   1     -11.259  16.685 133.498  1.00  0.00     0.023 A 
ATOM     23 C18  LIG L   1      -8.705  16.256 132.562  1.00  0.00     0.002 A 
ATOM     24 C19  LIG L   1     -10.185  17.215 134.212  1.00  0.00     0.002 A 
ATOM     25 C20  LIG L   1      -8.892  16.993 133.751  1.00  0.00     0.000 A 
ENDBRANCH   11   20
TORSDOF 2
ENDMDL
MODEL 8
REMARK VINA RESULT:   -17.738      1.740      8.879
REMARK ITER + INTRA:          -21.335
REMARK INTER:                 -18.931
REMARK INTRA:                  -2.404
REMARK CONF_INDEPENDENT:        1.193
REMARK UNBOUND:                 2.404
REMARK Flexibility Score: inf
REMARK Active torsions [ 2 ] -> [ 2 ]
ROOT
ATOM      1  C1  LIG L   1     -11.922  13.870 131.729  1.00  0.00     0.200 C 
ATOM      2  N1  LIG L   1     -13.224  13.495 132.346  1.00  0.00    -0.321 N 
ATOM      3  C2  LIG L   1     -14.367  14.162 131.943  1.00  0.00     0.041 A 
ATOM      4  C3  LIG L   1     -15.599  13.599 132.190  1.00  0.00     0.024 A 
ATOM      5  C4  LIG L   1     -16.773  14.252 131.802  1.00  0.00     0.002 A 
ATOM      6  C5  LIG L   1     -16.661  15.475 131.186  1.00  0.00     0.001 A 
ATOM      7  C6  LIG L   1     -15.404  16.055 130.931  1.00  0.00     0.015 A 
ATOM      8  C7  LIG L   1     -14.251  15.381 131.276  1.00  0.00     0.058 A 
ATOM      9  C8  LIG L   1     -12.997  15.985 131.145  1.00  0.00     0.254 C 
ATOM     10  O1  LIG L   1     -12.893  17.215 130.974  1.00  0.00    -0.270 OA
ATOM     11  N2  LIG L   1     -11.879  15.322 131.469  1.00  0.00    -0.244 N 
ATOM     12  H1  LIG L   1     -13.271  12.785 133.027  1.00  0.00     0.148 HD
ENDROOT
BRANCH    1   13
ATOM     13  C9  LIG L   1     -11.713  13.197 130.502  1.00  0.00     0.026 A 
ATOM     14  F1  LIG L   1     -10.447  11.678 131.640  1.00  0.00    -0.205 F 
ATOM     15 C10  LIG L   1     -10.926  12.053 130.524  1.00  0.00     0.130 A 
ATOM     16 C11  LIG L   1     -10.653  11.329 129.369  1.00  0.00     0.039 A 
ATOM     17 C12  LIG L   1     -12.201  13.617 129.247  1.00  0.00     0.010 A 
ATOM     18 C13  LIG L   1     -11.136  11.727 128.135  1.00  0.00     0.003 A 
ATOM     19 C14  LIG L   1     -11.941  12.864 128.080  1.00  0.00     0.001 A 
ENDBRANCH    1   13
BRANCH   11   20
ATOM     20 C15  LIG L   1     -10.725  15.991 131.625  1.00  0.00     0.039 A 
ATOM     21 C16  LIG L   1      -9.922  16.100 130.473  1.00  0.00     0.023 A 
ATOM     22 C17  LIG L   1     -10.268  16.537 132.811  1.00  0.00     0.023 A 
ATOM     23 C18  LIG L   1      -8.723  16.788 130.473  1.00  0.00     0.002 A 
ATOM     24 C19  LIG L   1      -9.027  17.214 132.822  1.00  0.00     0.002 A 
ATOM     25 C20  LIG L   1      -8.267  17.341 131.652  1.00  0.00     0.000 A 
ENDBRANCH   11   20
TORSDOF 2
REMARK Flexibility Score: inf
REMARK Active torsions [ 2 ] -> [ 2 ]
ROOT
ATOM      1  C1  LIG L   1     -18.621  18.327 129.189  1.00  0.00     0.200 C 
ATOM      2  N1  LIG L   1     -18.815  17.820 130.613  1.00  0.00    -0.321 N 
ATOM      3  C2  LIG L   1     -19.564  16.642 130.740  1.00  0.00     0.041 A 
ATOM      4  C3  LIG L   1     -20.358  16.427 131.840  1.00  0.00     0.024 A 
ATOM      5  C4  LIG L   1     -21.132  15.271 131.953  1.00  0.00     0.002 A 
ATOM      6  C5  LIG L   1     -21.096  14.359 130.934  1.00  0.00     0.001 A 
ATOM      7  C6  LIG L   1     -20.308  14.594 129.811  1.00  0.00     0.015 A 
ATOM      8  C7  LIG L   1     -19.582  15.764 129.674  1.00  0.00     0.058 A 
ATOM      9  C8  LIG L   1     -18.664  15.975 128.664  1.00  0.00     0.254 C 
ATOM     10  O1  LIG L   1     -18.093  15.003 128.197  1.00  0.00    -0.270 OA
ATOM     11  N2  LIG L   1     -18.039  17.155 128.478  1.00  0.00    -0.244 N 
ATOM     12  H1  LIG L   1     -18.440  18.289 131.393  1.00  0.00     0.148 HD
ENDROOT
BRANCH    1   13
ATOM     13  C9  LIG L   1     -19.785  18.778 128.453  1.00  0.00     0.026 A 
ATOM     14  F1  LIG L   1     -20.184  20.477 130.107  1.00  0.00    -0.205 F 
ATOM     15 C10  LIG L   1     -20.534  19.862 128.932  1.00  0.00     0.130 A 
ATOM     16 C11  LIG L   1     -21.636  20.349 128.231  1.00  0.00     0.039 A 
ATOM     17 C12  LIG L   1     -22.008  19.767 127.033  1.00  0.00     0.003 A 
ATOM     18 C13  LIG L   1     -20.185  18.208 127.229  1.00  0.00     0.010 A 
ATOM     19 C14  LIG L   1     -21.288  18.682 126.542  1.00  0.00     0.001 A 
ENDBRANCH    1   13
BRANCH   11   20
ATOM     20 C15  LIG L   1     -16.922  17.311 127.738  1.00  0.00     0.039 A 
ATOM     21 C16  LIG L   1     -16.895  16.960 126.390  1.00  0.00     0.023 A 
ATOM     22 C17  LIG L   1     -15.800  17.952 128.285  1.00  0.00     0.023 A 
ATOM     23 C18  LIG L   1     -15.742  17.215 125.633  1.00  0.00     0.002 A 
ATOM     24 C19  LIG L   1     -14.639  18.184 127.550  1.00  0.00     0.002 A 
ATOM     25 C20  LIG L   1     -14.599  17.805 126.214  1.00  0.00     0.000 A 
ENDBRANCH   11   20
TORSDOF 2
ENDMDL
MODEL 9
REMARK VINA RESULT:   -17.737      2.000      9.433
REMARK ITER + INTRA:          -21.343
REMARK INTER:                 -18.930
REMARK INTRA:                  -2.413
REMARK CONF_INDEPENDENT:        1.193
REMARK UNBOUND:                 2.413
REMARK Flexibility Score: inf
REMARK Active torsions [ 2 ] -> [ 2 ]
ROOT
ATOM      1  C1  LIG L   1     -11.902  15.297 129.139  1.00  0.00     0.200 C 
ATOM      2  N1  LIG L   1     -11.254  14.684 127.947  1.00  0.00    -0.321 N 
ATOM      3  C2  LIG L   1     -10.953  13.334 127.974  1.00  0.00     0.041 A 
ATOM      4  C3  LIG L   1     -10.722  12.670 126.790  1.00  0.00     0.024 A 
ATOM      5  C4  LIG L   1     -10.409  11.307 126.785  1.00  0.00     0.002 A 
ATOM      6  C5  LIG L   1     -10.321  10.658 127.993  1.00  0.00     0.001 A 
ATOM      7  C6  LIG L   1     -10.556  11.331 129.206  1.00  0.00     0.015 A 
ATOM      8  C7  LIG L   1     -10.910  12.665 129.197  1.00  0.00     0.058 A 
ATOM      9  C8  LIG L   1     -11.030  13.386 130.388  1.00  0.00     0.254 C 
ATOM     10  O1  LIG L   1     -10.570  12.940 131.456  1.00  0.00    -0.270 OA
ATOM     11  N2  LIG L   1     -11.386  14.678 130.376  1.00  0.00    -0.244 N 
ATOM     12  H1  LIG L   1     -11.044  15.228 127.154  1.00  0.00     0.148 HD
ENDROOT
BRANCH    1   13
ATOM     13  C9  LIG L   1     -13.306  15.127 129.114  1.00  0.00     0.026 A 
ATOM     14  F1  LIG L   1     -13.498  17.238 129.958  1.00  0.00    -0.205 F 
ATOM     15 C10  LIG L   1     -14.088  16.184 129.560  1.00  0.00     0.130 A 
ATOM     16 C11  LIG L   1     -15.476  16.110 129.587  1.00  0.00     0.039 A 
ATOM     17 C12  LIG L   1     -13.981  13.953 128.715  1.00  0.00     0.010 A 
ATOM     18 C13  LIG L   1     -16.146  14.967 129.187  1.00  0.00     0.003 A 
ATOM     19 C14  LIG L   1     -15.392  13.892 128.720  1.00  0.00     0.001 A 
ENDBRANCH    1   13
BRANCH   11   20
ATOM     20 C15  LIG L   1     -11.213  15.432 131.473  1.00  0.00     0.039 A 
ATOM     21 C16  LIG L   1      -9.879  15.749 131.791  1.00  0.00     0.023 A 
ATOM     22 C17  LIG L   1     -12.223  15.880 132.305  1.00  0.00     0.023 A 
ATOM     23 C18  LIG L   1      -9.548  16.544 132.873  1.00  0.00     0.002 A 
ATOM     24 C19  LIG L   1     -11.885  16.668 133.430  1.00  0.00     0.002 A 
ATOM     25 C20  LIG L   1     -10.552  17.001 133.702  1.00  0.00     0.000 A 
ENDBRANCH   11   20
TORSDOF 2
REMARK Flexibility Score: inf
REMARK Active torsions [ 2 ] -> [ 2 ]
ROOT
ATOM      1  C1  LIG L   1     -19.887  17.463 128.265  1.00  0.00     0.200 C 
ATOM      2  N1  LIG L   1     -20.481  16.188 128.851  1.00  0.00    -0.321 N 
ATOM      3  C2  LIG L   1     -19.791  15.645 129.943  1.00  0.00     0.041 A 
ATOM      4  C3  LIG L   1     -19.754  14.286 130.148  1.00  0.00     0.024 A 
ATOM      5  C4  LIG L   1     -19.038  13.740 131.215  1.00  0.00     0.002 A 
ATOM      6  C5  LIG L   1     -18.357  14.587 132.046  1.00  0.00     0.001 A 
ATOM      7  C6  LIG L   1     -18.378  15.960 131.819  1.00  0.00     0.015 A 
ATOM      8  C7  LIG L   1     -19.044  16.498 130.731  1.00  0.00     0.058 A 
ATOM      9  C8  LIG L   1     -19.232  17.855 130.551  1.00  0.00     0.254 C 
ATOM     10  O1  LIG L   1     -19.292  18.561 131.543  1.00  0.00    -0.270 OA
ATOM     11  N2  LIG L   1     -19.789  18.374 129.438  1.00  0.00    -0.244 N 
ATOM     12  H1  LIG L   1     -21.296  15.773 128.487  1.00  0.00     0.148 HD
ENDROOT
BRANCH    1   13
ATOM     13  C9  LIG L   1     -18.586  17.389 127.631  1.00  0.00     0.026 A 
ATOM     14  F1  LIG L   1     -19.220  15.340 126.545  1.00  0.00    -0.205 F 
ATOM     15 C10  LIG L   1     -18.292  16.325 126.768  1.00  0.00     0.130 A 
ATOM     16 C11  LIG L   1     -17.065  16.241 126.110  1.00  0.00     0.039 A 
ATOM     17 C12  LIG L   1     -16.111  17.225 126.295  1.00  0.00     0.003 A 
ATOM     18 C13  LIG L   1     -17.596  18.378 127.797  1.00  0.00     0.010 A 
ATOM     19 C14  LIG L   1     -16.374  18.286 127.156  1.00  0.00     0.001 A 
ENDBRANCH    1   13
BRANCH   11   20
ATOM     20 C15  LIG L   1     -20.284  19.625 129.355  1.00  0.00     0.039 A 
ATOM     21 C16  LIG L   1     -21.611  19.854 128.998  1.00  0.00     0.023 A 
ATOM     22 C17  LIG L   1     -19.501  20.719 129.755  1.00  0.00     0.023 A 
ATOM     23 C18  LIG L   1     -22.113  21.164 129.005  1.00  0.00     0.002 A 
ATOM     24 C19  LIG L   1     -19.980  22.028 129.738  1.00  0.00     0.002 A 
ATOM     25 C20  LIG L   1     -21.295  22.261 129.351  1.00  0.00     0.000 A 
ENDBRANCH   11   20
TORSDOF 2
ENDMDL
