MODEL 1
REMARK VINA RESULT:   -12.699      0.000      0.000
REMARK INTER + INTRA:         -20.837
REMARK INTER:                 -18.782
REMARK INTRA:                  -2.055
REMARK UNBOUND:                -1.085
REMARK  10 active torsions:
REMARK  status: ('A' for Active; 'I' for Inactive)
REMARK    1  A    between atoms: C1_1  and  O38_38 
REMARK    2  A    between atoms: N10_10  and  C15_15 
REMARK    3  A    between atoms: C15_15  and  C16_16 
REMARK    4  A    between atoms: C16_16  and  O17_17 
REMARK    5  A    between atoms: C16_16  and  C18_18 
REMARK    6  A    between atoms: C18_18  and  N19_19 
REMARK    7  A    between atoms: C18_18  and  C31_31 
REMARK       I    between atoms: N19_19  and  C20_20 
REMARK    8  A    between atoms: C20_20  and  O22_22 
REMARK    9  A    between atoms: O22_22  and  C23_23 
REMARK   10  A    between atoms: C31_31  and  C37_37 
ROOT
HETATM    1  C16 GR7 B 201      15.386 -19.042  -4.875  0.65 11.09     0.160 C 
ENDROOT
BRANCH   1   2
HETATM    2  C15 GR7 B 201      16.441 -18.091  -5.449  0.65 12.50     0.169 C 
BRANCH   2   3
HETATM    3  N10 GR7 B 201      17.765 -18.664  -5.371  0.65 15.26    -0.304 N 
HETATM    4  S7  GR7 B 201      18.661 -18.951  -6.671  0.65 15.90     0.261 S 
HETATM    5  C4  GR7 B 201      19.581 -17.532  -7.187  0.65 13.42     0.088 A 
HETATM    6  O8  GR7 B 201      17.660 -19.136  -7.836  0.65 15.29    -0.200 OA
HETATM    7  O9  GR7 B 201      19.606 -20.041  -6.459  0.65 16.57    -0.200 OA
HETATM    8  C3  GR7 B 201      20.901 -17.255  -6.874  0.65 13.99    -0.009 A 
HETATM    9  C5  GR7 B 201      18.933 -16.592  -7.989  0.65 13.26     0.028 A 
HETATM   10  C2  GR7 B 201      21.536 -16.082  -7.347  0.65 14.14     0.047 A 
HETATM   11  C40 GR7 B 201      21.714 -18.081  -6.081  0.65 16.21     0.207 C 
HETATM   12  C1  GR7 B 201      20.869 -15.161  -8.143  0.65 14.73     0.068 A 
HETATM   13  C6  GR7 B 201      19.548 -15.449  -8.453  0.65 13.78     0.038 A 
HETATM   14  O41 GR7 B 201      21.943 -17.257  -4.873  0.65 19.51    -0.387 OA
HETATM   15  C42 GR7 B 201      22.637 -17.866  -3.773  0.65 20.26     0.168 C 
HETATM   16  C43 GR7 B 201      21.732 -18.278  -2.785  0.65 20.30     0.026 C 
HETATM   17  C44 GR7 B 201      21.233 -19.538  -2.619  0.65 20.47     0.002 C 
HETATM   18  C14 GR7 B 201      20.300 -20.038  -1.739  0.65 20.92     0.000 C 
HETATM   19  C13 GR7 B 201      18.865 -20.130  -2.105  0.65 19.92     0.002 C 
HETATM   20  C12 GR7 B 201      18.579 -20.169  -3.583  0.65 18.52     0.021 C 
HETATM   21  C11 GR7 B 201      18.424 -18.749  -4.105  0.65 16.50     0.135 C 
BRANCH  12  22
HETATM   22  O38 GR7 B 201      21.427 -14.014  -8.629  0.65 14.38    -0.356 OA
HETATM   23  C39 GR7 B 201      22.816 -13.924  -8.341  0.65 19.75     0.210 C 
ENDBRANCH  12  22
ENDBRANCH   2   3
ENDBRANCH   1   2
BRANCH   1  24
HETATM   24  O17 GR7 B 201      14.234 -18.293  -4.438  0.65 11.94    -0.392 OA
HETATM   25  H11 GR7 B 201      14.467 -17.365  -4.357  0.65 11.94     0.210 HD
ENDBRANCH   1  24
BRANCH   1  26
HETATM   26  C18 GR7 B 201      14.944 -20.109  -5.869  0.65 11.44     0.121 C 
BRANCH  26  27
HETATM   27  N19 GR7 B 201      13.997 -21.017  -5.204  0.65 12.38    -0.329 N 
HETATM   28  C20 GR7 B 201      14.328 -21.980  -4.353  0.65 12.57     0.361 C 
HETATM   29  O21 GR7 B 201      15.466 -22.336  -3.947  0.65 12.86    -0.238 OA
HETATM   30  H13 GR7 B 201      13.016 -20.896  -5.412  0.65 12.38     0.165 HD
BRANCH  28  31
HETATM   31  O22 GR7 B 201      13.260 -22.617  -3.826  0.65 12.10    -0.296 OA
BRANCH  31  32
HETATM   32  C23 GR7 B 201      13.443 -24.016  -3.563  0.65 12.33     0.166 C 
HETATM   33  C24 GR7 B 201      12.733 -24.280  -2.216  0.65 11.72     0.204 C 
HETATM   34  O25 GR7 B 201      11.340 -24.249  -2.595  0.65 12.04    -0.358 OA
HETATM   35  C26 GR7 B 201      11.187 -24.846  -3.883  0.65 13.46     0.266 C 
HETATM   36  O27 GR7 B 201      10.371 -24.001  -4.694  0.65 12.98    -0.361 OA
HETATM   37  C30 GR7 B 201      12.573 -24.849  -4.505  0.65 12.55     0.075 C 
HETATM   38  C28 GR7 B 201      11.143 -23.388  -5.734  0.65 12.99     0.171 C 
HETATM   39  C29 GR7 B 201      12.329 -24.325  -5.909  0.65 13.37     0.038 C 
ENDBRANCH  31  32
ENDBRANCH  28  31
ENDBRANCH  26  27
BRANCH  26  40
HETATM   40  C31 GR7 B 201      14.244 -19.508  -7.097  0.65 12.46     0.066 C 
BRANCH  40  41
HETATM   41  C37 GR7 B 201      13.877 -20.612  -8.101  0.65 13.02    -0.056 C 
HETATM   42  C32 GR7 B 201      12.555 -21.006  -8.265  0.65 14.03     0.007 C 
HETATM   43  C33 GR7 B 201      12.195 -22.045  -9.139  0.65 13.26     0.001 C 
HETATM   44  C34 GR7 B 201      13.224 -22.756  -9.740  0.65 13.23     0.000 C 
HETATM   45  C35 GR7 B 201      14.545 -22.351  -9.643  0.65 13.71     0.001 C 
HETATM   46  C36 GR7 B 201      14.905 -21.331  -8.758  0.65 12.94     0.007 C 
ENDBRANCH  40  41
ENDBRANCH  26  40
ENDBRANCH   1  26
TORSDOF 10
ENDMDL
MODEL 2
REMARK VINA RESULT:   -10.594      1.774      4.092
REMARK INTER + INTRA:         -17.563
REMARK INTER:                 -16.530
REMARK INTRA:                  -1.032
REMARK UNBOUND:                -1.085
REMARK  10 active torsions:
REMARK  status: ('A' for Active; 'I' for Inactive)
REMARK    1  A    between atoms: C1_1  and  O38_38 
REMARK    2  A    between atoms: N10_10  and  C15_15 
REMARK    3  A    between atoms: C15_15  and  C16_16 
REMARK    4  A    between atoms: C16_16  and  O17_17 
REMARK    5  A    between atoms: C16_16  and  C18_18 
REMARK    6  A    between atoms: C18_18  and  N19_19 
REMARK    7  A    between atoms: C18_18  and  C31_31 
REMARK       I    between atoms: N19_19  and  C20_20 
REMARK    8  A    between atoms: C20_20  and  O22_22 
REMARK    9  A    between atoms: O22_22  and  C23_23 
REMARK   10  A    between atoms: C31_31  and  C37_37 
ROOT
HETATM    1  C16 GR7 B 201      14.933 -20.057  -4.330  0.65 11.09     0.160 C 
ENDROOT
BRANCH   1   2
HETATM    2  C15 GR7 B 201      15.797 -19.688  -5.539  0.65 12.50     0.169 C 
BRANCH   2   3
HETATM    3  N10 GR7 B 201      17.198 -19.924  -5.278  0.65 15.26    -0.304 N 
HETATM    4  S7  GR7 B 201      18.296 -20.003  -6.445  0.65 15.90     0.261 S 
HETATM    5  C4  GR7 B 201      18.911 -18.410  -6.906  0.65 13.42     0.088 A 
HETATM    6  O8  GR7 B 201      17.526 -20.437  -7.715  0.65 15.29    -0.200 OA
HETATM    7  O9  GR7 B 201      19.438 -20.830  -6.074  0.65 16.57    -0.200 OA
HETATM    8  C3  GR7 B 201      20.076 -17.819  -6.447  0.65 13.99    -0.009 A 
HETATM    9  C5  GR7 B 201      18.166 -17.664  -7.820  0.65 13.26     0.028 A 
HETATM   10  C2  GR7 B 201      20.470 -16.534  -6.889  0.65 14.14     0.047 A 
HETATM   11  C40 GR7 B 201      20.954 -18.415  -5.527  0.65 16.21     0.207 C 
HETATM   12  C1  GR7 B 201      19.711 -15.810  -7.798  0.65 14.73     0.068 A 
HETATM   13  C6  GR7 B 201      18.546 -16.412  -8.253  0.65 13.78     0.038 A 
HETATM   14  O41 GR7 B 201      20.824 -17.546  -4.336  0.65 19.51    -0.387 OA
HETATM   15  C42 GR7 B 201      21.496 -17.957  -3.135  0.65 20.26     0.168 C 
HETATM   16  C43 GR7 B 201      20.596 -18.563  -2.248  0.65 20.30     0.026 C 
HETATM   17  C44 GR7 B 201      20.393 -19.903  -2.089  0.65 20.47     0.002 C 
HETATM   18  C14 GR7 B 201      19.500 -20.603  -1.309  0.65 20.92     0.000 C 
HETATM   19  C13 GR7 B 201      18.188 -21.042  -1.843  0.65 19.92     0.002 C 
HETATM   20  C12 GR7 B 201      18.111 -21.167  -3.341  0.65 18.52     0.021 C 
HETATM   21  C11 GR7 B 201      17.691 -19.833  -3.938  0.65 16.50     0.135 C 
BRANCH  12  22
HETATM   22  O38 GR7 B 201      20.038 -14.568  -8.261  0.65 14.38    -0.356 OA
HETATM   23  C39 GR7 B 201      21.186 -14.589  -9.098  0.65 19.75     0.210 C 
ENDBRANCH  12  22
ENDBRANCH   2   3
ENDBRANCH   1   2
BRANCH   1  24
HETATM   24  O17 GR7 B 201      13.954 -19.025  -4.092  0.65 11.94    -0.392 OA
HETATM   25  H11 GR7 B 201      13.821 -18.519  -4.896  0.65 11.94     0.210 HD
ENDBRANCH   1  24
BRANCH   1  26
HETATM   26  C18 GR7 B 201      14.223 -21.396  -4.493  0.65 11.44     0.121 C 
BRANCH  26  27
HETATM   27  N19 GR7 B 201      14.005 -21.649  -5.925  0.65 12.38    -0.329 N 
HETATM   28  C20 GR7 B 201      12.908 -22.181  -6.451  0.65 12.57     0.361 C 
HETATM   29  O21 GR7 B 201      11.861 -22.587  -5.883  0.65 12.86    -0.238 OA
HETATM   30  H13 GR7 B 201      14.750 -21.396  -6.559  0.65 12.38     0.165 HD
BRANCH  28  31
HETATM   31  O22 GR7 B 201      12.935 -22.232  -7.800  0.65 12.10    -0.296 OA
BRANCH  31  32
HETATM   32  C23 GR7 B 201      14.242 -22.274  -8.391  0.65 12.33     0.166 C 
HETATM   33  C24 GR7 B 201      14.086 -23.113  -9.681  0.65 11.72     0.204 C 
HETATM   34  O25 GR7 B 201      13.413 -22.191 -10.564  0.65 12.04    -0.358 OA
HETATM   35  C26 GR7 B 201      13.913 -20.872 -10.343  0.65 13.46     0.266 C 
HETATM   36  O27 GR7 B 201      12.813 -19.970 -10.226  0.65 12.98    -0.361 OA
HETATM   37  C30 GR7 B 201      14.597 -20.911  -8.987  0.65 12.55     0.075 C 
HETATM   38  C28 GR7 B 201      12.680 -19.496  -8.880  0.65 12.99     0.171 C 
HETATM   39  C29 GR7 B 201      14.074 -19.667  -8.293  0.65 13.37     0.038 C 
ENDBRANCH  31  32
ENDBRANCH  28  31
ENDBRANCH  26  27
BRANCH  26  40
HETATM   40  C31 GR7 B 201      15.042 -22.564  -3.922  0.65 12.46     0.066 C 
BRANCH  40  41
HETATM   41  C37 GR7 B 201      14.139 -23.784  -3.681  0.65 13.02    -0.056 C 
HETATM   42  C32 GR7 B 201      14.134 -24.847  -4.577  0.65 14.03     0.007 C 
HETATM   43  C33 GR7 B 201      13.286 -25.953  -4.409  0.65 13.26     0.001 C 
HETATM   44  C34 GR7 B 201      12.355 -25.890  -3.381  0.65 13.23     0.000 C 
HETATM   45  C35 GR7 B 201      12.375 -24.876  -2.439  0.65 13.71     0.001 C 
HETATM   46  C36 GR7 B 201      13.205 -23.765  -2.618  0.65 12.94     0.007 C 
ENDBRANCH  40  41
ENDBRANCH  26  40
ENDBRANCH   1  26
TORSDOF 10
ENDMDL
MODEL 3
REMARK VINA RESULT:   -10.393      2.532     10.003
REMARK INTER + INTRA:         -17.250
REMARK INTER:                 -15.294
REMARK INTRA:                  -1.956
REMARK UNBOUND:                -1.085
REMARK  10 active torsions:
REMARK  status: ('A' for Active; 'I' for Inactive)
REMARK    1  A    between atoms: C1_1  and  O38_38 
REMARK    2  A    between atoms: N10_10  and  C15_15 
REMARK    3  A    between atoms: C15_15  and  C16_16 
REMARK    4  A    between atoms: C16_16  and  O17_17 
REMARK    5  A    between atoms: C16_16  and  C18_18 
REMARK    6  A    between atoms: C18_18  and  N19_19 
REMARK    7  A    between atoms: C18_18  and  C31_31 
REMARK       I    between atoms: N19_19  and  C20_20 
REMARK    8  A    between atoms: C20_20  and  O22_22 
REMARK    9  A    between atoms: O22_22  and  C23_23 
REMARK   10  A    between atoms: C31_31  and  C37_37 
ROOT
HETATM    1  C16 GR7 B 201      15.455 -20.488  -7.056  0.65 11.09     0.160 C 
ENDROOT
BRANCH   1   2
HETATM    2  C15 GR7 B 201      14.952 -21.845  -7.556  0.65 12.50     0.169 C 
BRANCH   2   3
HETATM    3  N10 GR7 B 201      13.781 -22.273  -6.826  0.65 15.26    -0.304 N 
HETATM    4  S7  GR7 B 201      12.296 -22.145  -7.419  0.65 15.90     0.261 S 
HETATM    5  C4  GR7 B 201      11.852 -23.521  -8.438  0.65 13.42     0.088 A 
HETATM    6  O8  GR7 B 201      12.352 -20.985  -8.441  0.65 15.29    -0.200 OA
HETATM    7  O9  GR7 B 201      11.290 -22.027  -6.370  0.65 16.57    -0.200 OA
HETATM    8  C3  GR7 B 201      11.129 -24.633  -8.041  0.65 13.99    -0.009 A 
HETATM    9  C5  GR7 B 201      12.258 -23.501  -9.773  0.65 13.26     0.028 A 
HETATM   10  C2  GR7 B 201      10.831 -25.677  -8.949  0.65 14.14     0.047 A 
HETATM   11  C40 GR7 B 201      10.635 -24.830  -6.741  0.65 16.21     0.207 C 
HETATM   12  C1  GR7 B 201      11.248 -25.634 -10.272  0.65 14.73     0.068 A 
HETATM   13  C6  GR7 B 201      11.970 -24.515 -10.660  0.65 13.78     0.038 A 
HETATM   14  O41 GR7 B 201      11.422 -25.989  -6.261  0.65 19.51    -0.387 OA
HETATM   15  C42 GR7 B 201      11.265 -26.378  -4.889  0.65 20.26     0.168 C 
HETATM   16  C43 GR7 B 201      12.327 -25.894  -4.113  0.65 20.30     0.026 C 
HETATM   17  C44 GR7 B 201      12.324 -24.761  -3.352  0.65 20.47     0.002 C 
HETATM   18  C14 GR7 B 201      13.318 -24.158  -2.613  0.65 20.92     0.000 C 
HETATM   19  C13 GR7 B 201      14.168 -23.088  -3.190  0.65 19.92     0.002 C 
HETATM   20  C12 GR7 B 201      13.571 -22.351  -4.361  0.65 18.52     0.021 C 
HETATM   21  C11 GR7 B 201      13.935 -23.072  -5.650  0.65 16.50     0.135 C 
BRANCH  12  22
HETATM   22  O38 GR7 B 201      10.992 -26.608 -11.194  0.65 14.38    -0.356 OA
HETATM   23  C39 GR7 B 201      12.181 -27.218 -11.678  0.65 19.75     0.210 C 
ENDBRANCH  12  22
ENDBRANCH   2   3
ENDBRANCH   1   2
BRANCH   1  24
HETATM   24  O17 GR7 B 201      14.348 -19.699  -6.574  0.65 11.94    -0.392 OA
HETATM   25  H11 GR7 B 201      13.650 -19.693  -7.232  0.65 11.94     0.210 HD
ENDBRANCH   1  24
BRANCH   1  26
HETATM   26  C18 GR7 B 201      16.502 -20.610  -5.955  0.65 11.44     0.121 C 
BRANCH  26  27
HETATM   27  N19 GR7 B 201      17.704 -19.864  -6.356  0.65 12.38    -0.329 N 
HETATM   28  C20 GR7 B 201      17.724 -18.598  -6.752  0.65 12.57     0.361 C 
HETATM   29  O21 GR7 B 201      16.772 -17.784  -6.887  0.65 12.86    -0.238 OA
HETATM   30  H13 GR7 B 201      18.586 -20.356  -6.326  0.65 12.38     0.165 HD
BRANCH  28  31
HETATM   31  O22 GR7 B 201      18.969 -18.132  -6.989  0.65 12.10    -0.296 OA
BRANCH  31  32
HETATM   32  C23 GR7 B 201      19.565 -17.388  -5.915  0.65 12.33     0.166 C 
HETATM   33  C24 GR7 B 201      20.717 -18.275  -5.389  0.65 11.72     0.204 C 
HETATM   34  O25 GR7 B 201      21.716 -18.120  -6.420  0.65 12.04    -0.358 OA
HETATM   35  C26 GR7 B 201      21.694 -16.776  -6.902  0.65 13.46     0.266 C 
HETATM   36  O27 GR7 B 201      21.695 -16.793  -8.329  0.65 12.98    -0.361 OA
HETATM   37  C30 GR7 B 201      20.356 -16.203  -6.468  0.65 12.55     0.075 C 
HETATM   38  C28 GR7 B 201      20.430 -16.362  -8.847  0.65 12.99     0.171 C 
HETATM   39  C29 GR7 B 201      19.843 -15.521  -7.724  0.65 13.37     0.038 C 
ENDBRANCH  31  32
ENDBRANCH  28  31
ENDBRANCH  26  27
BRANCH  26  40
HETATM   40  C31 GR7 B 201      16.010 -20.037  -4.617  0.65 12.46     0.066 C 
BRANCH  40  41
HETATM   41  C37 GR7 B 201      17.121 -20.117  -3.558  0.65 13.02    -0.056 C 
HETATM   42  C32 GR7 B 201      17.697 -18.958  -3.052  0.65 14.03     0.007 C 
HETATM   43  C33 GR7 B 201      18.747 -19.000  -2.120  0.65 13.26     0.001 C 
HETATM   44  C34 GR7 B 201      19.279 -20.246  -1.816  0.65 13.23     0.000 C 
HETATM   45  C35 GR7 B 201      18.689 -21.419  -2.257  0.65 13.71     0.001 C 
HETATM   46  C36 GR7 B 201      17.659 -21.376  -3.201  0.65 12.94     0.007 C 
ENDBRANCH  40  41
ENDBRANCH  26  40
ENDBRANCH   1  26
TORSDOF 10
ENDMDL
MODEL 4
REMARK VINA RESULT:   -10.375      2.582      9.955
REMARK INTER + INTRA:         -17.222
REMARK INTER:                 -14.960
REMARK INTRA:                  -2.262
REMARK UNBOUND:                -1.085
REMARK  10 active torsions:
REMARK  status: ('A' for Active; 'I' for Inactive)
REMARK    1  A    between atoms: C1_1  and  O38_38 
REMARK    2  A    between atoms: N10_10  and  C15_15 
REMARK    3  A    between atoms: C15_15  and  C16_16 
REMARK    4  A    between atoms: C16_16  and  O17_17 
REMARK    5  A    between atoms: C16_16  and  C18_18 
REMARK    6  A    between atoms: C18_18  and  N19_19 
REMARK    7  A    between atoms: C18_18  and  C31_31 
REMARK       I    between atoms: N19_19  and  C20_20 
REMARK    8  A    between atoms: C20_20  and  O22_22 
REMARK    9  A    between atoms: O22_22  and  C23_23 
REMARK   10  A    between atoms: C31_31  and  C37_37 
ROOT
HETATM    1  C16 GR7 B 201      15.533 -20.436  -7.290  0.65 11.09     0.160 C 
ENDROOT
BRANCH   1   2
HETATM    2  C15 GR7 B 201      15.010 -21.810  -7.721  0.65 12.50     0.169 C 
BRANCH   2   3
HETATM    3  N10 GR7 B 201      13.844 -22.193  -6.959  0.65 15.26    -0.304 N 
HETATM    4  S7  GR7 B 201      12.353 -22.070  -7.537  0.65 15.90     0.261 S 
HETATM    5  C4  GR7 B 201      11.878 -23.480  -8.494  0.65 13.42     0.088 A 
HETATM    6  O8  GR7 B 201      12.410 -20.952  -8.605  0.65 15.29    -0.200 OA
HETATM    7  O9  GR7 B 201      11.364 -21.897  -6.480  0.65 16.57    -0.200 OA
HETATM    8  C3  GR7 B 201      11.147 -24.565  -8.043  0.65 13.99    -0.009 A 
HETATM    9  C5  GR7 B 201      12.266 -23.518  -9.834  0.65 13.26     0.028 A 
HETATM   10  C2  GR7 B 201      10.823 -25.640  -8.904  0.65 14.14     0.047 A 
HETATM   11  C40 GR7 B 201      10.669 -24.704  -6.730  0.65 16.21     0.207 C 
HETATM   12  C1  GR7 B 201      11.222 -25.656 -10.234  0.65 14.73     0.068 A 
HETATM   13  C6  GR7 B 201      11.953 -24.563 -10.676  0.65 13.78     0.038 A 
HETATM   14  O41 GR7 B 201      11.448 -25.852  -6.215  0.65 19.51    -0.387 OA
HETATM   15  C42 GR7 B 201      11.306 -26.184  -4.825  0.65 20.26     0.168 C 
HETATM   16  C43 GR7 B 201      12.385 -25.684  -4.084  0.65 20.30     0.026 C 
HETATM   17  C44 GR7 B 201      12.406 -24.521  -3.369  0.65 20.47     0.002 C 
HETATM   18  C14 GR7 B 201      13.418 -23.902  -2.669  0.65 20.92     0.000 C 
HETATM   19  C13 GR7 B 201      14.272 -22.867  -3.300  0.65 19.92     0.002 C 
HETATM   20  C12 GR7 B 201      13.668 -22.170  -4.490  0.65 18.52     0.021 C 
HETATM   21  C11 GR7 B 201      14.006 -22.946  -5.754  0.65 16.50     0.135 C 
BRANCH  12  22
HETATM   22  O38 GR7 B 201      10.942 -26.663 -11.112  0.65 14.38    -0.356 OA
HETATM   23  C39 GR7 B 201      12.099 -27.117 -11.801  0.65 19.75     0.210 C 
ENDBRANCH  12  22
ENDBRANCH   2   3
ENDBRANCH   1   2
BRANCH   1  24
HETATM   24  O17 GR7 B 201      14.442 -19.626  -6.806  0.65 11.94    -0.392 OA
HETATM   25  H11 GR7 B 201      14.107 -19.080  -7.520  0.65 11.94     0.210 HD
ENDBRANCH   1  24
BRANCH   1  26
HETATM   26  C18 GR7 B 201      16.612 -20.520  -6.217  0.65 11.44     0.121 C 
BRANCH  26  27
HETATM   27  N19 GR7 B 201      17.800 -19.787  -6.677  0.65 12.38    -0.329 N 
HETATM   28  C20 GR7 B 201      17.821 -18.508  -7.033  0.65 12.57     0.361 C 
HETATM   29  O21 GR7 B 201      16.881 -17.671  -7.074  0.65 12.86    -0.238 OA
HETATM   30  H13 GR7 B 201      18.670 -20.298  -6.726  0.65 12.38     0.165 HD
BRANCH  28  31
HETATM   31  O22 GR7 B 201      19.057 -18.060  -7.342  0.65 12.10    -0.296 OA
BRANCH  31  32
HETATM   32  C23 GR7 B 201      20.139 -18.930  -6.976  0.65 12.33     0.166 C 
HETATM   33  C24 GR7 B 201      21.111 -18.910  -8.178  0.65 11.72     0.204 C 
HETATM   34  O25 GR7 B 201      21.737 -17.617  -8.040  0.65 12.04    -0.358 OA
HETATM   35  C26 GR7 B 201      21.932 -17.329  -6.656  0.65 13.46     0.266 C 
HETATM   36  O27 GR7 B 201      21.480 -16.002  -6.387  0.65 12.98    -0.361 OA
HETATM   37  C30 GR7 B 201      21.007 -18.271  -5.904  0.65 12.55     0.075 C 
HETATM   38  C28 GR7 B 201      20.283 -16.019  -5.597  0.65 12.99     0.171 C 
HETATM   39  C29 GR7 B 201      20.331 -17.365  -4.890  0.65 13.37     0.038 C 
ENDBRANCH  31  32
ENDBRANCH  28  31
ENDBRANCH  26  27
BRANCH  26  40
HETATM   40  C31 GR7 B 201      16.158 -19.904  -4.884  0.65 12.46     0.066 C 
BRANCH  40  41
HETATM   41  C37 GR7 B 201      17.261 -20.045  -3.824  0.65 13.02    -0.056 C 
HETATM   42  C32 GR7 B 201      17.747 -21.299  -3.474  0.65 14.03     0.007 C 
HETATM   43  C33 GR7 B 201      18.720 -21.464  -2.475  0.65 13.26     0.001 C 
HETATM   44  C34 GR7 B 201      19.090 -20.336  -1.755  0.65 13.23     0.000 C 
HETATM   45  C35 GR7 B 201      18.669 -19.068  -2.119  0.65 13.71     0.001 C 
HETATM   46  C36 GR7 B 201      17.685 -18.906  -3.098  0.65 12.94     0.007 C 
ENDBRANCH  40  41
ENDBRANCH  26  40
ENDBRANCH   1  26
TORSDOF 10
ENDMDL
MODEL 5
REMARK VINA RESULT:   -10.191      1.706      3.795
REMARK INTER + INTRA:         -16.936
REMARK INTER:                 -15.694
REMARK INTRA:                  -1.242
REMARK UNBOUND:                -1.085
REMARK  10 active torsions:
REMARK  status: ('A' for Active; 'I' for Inactive)
REMARK    1  A    between atoms: C1_1  and  O38_38 
REMARK    2  A    between atoms: N10_10  and  C15_15 
REMARK    3  A    between atoms: C15_15  and  C16_16 
REMARK    4  A    between atoms: C16_16  and  O17_17 
REMARK    5  A    between atoms: C16_16  and  C18_18 
REMARK    6  A    between atoms: C18_18  and  N19_19 
REMARK    7  A    between atoms: C18_18  and  C31_31 
REMARK       I    between atoms: N19_19  and  C20_20 
REMARK    8  A    between atoms: C20_20  and  O22_22 
REMARK    9  A    between atoms: O22_22  and  C23_23 
REMARK   10  A    between atoms: C31_31  and  C37_37 
ROOT
HETATM    1  C16 GR7 B 201      15.114 -19.643  -4.363  0.65 11.09     0.160 C 
ENDROOT
BRANCH   1   2
HETATM    2  C15 GR7 B 201      15.967 -19.527  -5.630  0.65 12.50     0.169 C 
BRANCH   2   3
HETATM    3  N10 GR7 B 201      17.360 -19.797  -5.354  0.65 15.26    -0.304 N 
HETATM    4  S7  GR7 B 201      18.478 -19.837  -6.503  0.65 15.90     0.261 S 
HETATM    5  C4  GR7 B 201      19.125 -18.234  -6.876  0.65 13.42     0.088 A 
HETATM    6  O8  GR7 B 201      17.726 -20.199  -7.806  0.65 15.29    -0.200 OA
HETATM    7  O9  GR7 B 201      19.600 -20.699  -6.151  0.65 16.57    -0.200 OA
HETATM    8  C3  GR7 B 201      20.290 -17.684  -6.368  0.65 13.99    -0.009 A 
HETATM    9  C5  GR7 B 201      18.410 -17.434  -7.767  0.65 13.26     0.028 A 
HETATM   10  C2  GR7 B 201      20.711 -16.386  -6.740  0.65 14.14     0.047 A 
HETATM   11  C40 GR7 B 201      21.141 -18.337  -5.461  0.65 16.21     0.207 C 
HETATM   12  C1  GR7 B 201      19.981 -15.608  -7.628  0.65 14.73     0.068 A 
HETATM   13  C6  GR7 B 201      18.817 -16.169  -8.133  0.65 13.78     0.038 A 
HETATM   14  O41 GR7 B 201      21.002 -17.524  -4.233  0.65 19.51    -0.387 OA
HETATM   15  C42 GR7 B 201      21.644 -18.002  -3.041  0.65 20.26     0.168 C 
HETATM   16  C43 GR7 B 201      20.719 -18.635  -2.200  0.65 20.30     0.026 C 
HETATM   17  C44 GR7 B 201      20.493 -19.978  -2.110  0.65 20.47     0.002 C 
HETATM   18  C14 GR7 B 201      19.575 -20.699  -1.380  0.65 20.92     0.000 C 
HETATM   19  C13 GR7 B 201      18.266 -21.092  -1.959  0.65 19.92     0.002 C 
HETATM   20  C12 GR7 B 201      18.216 -21.145  -3.463  0.65 18.52     0.021 C 
HETATM   21  C11 GR7 B 201      17.828 -19.777  -4.003  0.65 16.50     0.135 C 
BRANCH  12  22
HETATM   22  O38 GR7 B 201      20.335 -14.351  -8.025  0.65 14.38    -0.356 OA
HETATM   23  C39 GR7 B 201      21.194 -14.364  -9.157  0.65 19.75     0.210 C 
ENDBRANCH  12  22
ENDBRANCH   2   3
ENDBRANCH   1   2
BRANCH   1  24
HETATM   24  O17 GR7 B 201      14.212 -18.521  -4.274  0.65 11.94    -0.392 OA
HETATM   25  H11 GR7 B 201      13.349 -18.827  -3.985  0.65 11.94     0.210 HD
ENDBRANCH   1  24
BRANCH   1  26
HETATM   26  C18 GR7 B 201      14.313 -20.938  -4.302  0.65 11.44     0.121 C 
BRANCH  26  27
HETATM   27  N19 GR7 B 201      14.300 -21.553  -5.637  0.65 12.38    -0.329 N 
HETATM   28  C20 GR7 B 201      13.270 -22.196  -6.174  0.65 12.57     0.361 C 
HETATM   29  O21 GR7 B 201      12.131 -22.433  -5.692  0.65 12.86    -0.238 OA
HETATM   30  H13 GR7 B 201      15.142 -21.480  -6.190  0.65 12.38     0.165 HD
BRANCH  28  31
HETATM   31  O22 GR7 B 201      13.495 -22.598  -7.444  0.65 12.10    -0.296 OA
BRANCH  31  32
HETATM   32  C23 GR7 B 201      13.595 -21.546  -8.416  0.65 12.33     0.166 C 
HETATM   33  C24 GR7 B 201      14.840 -21.886  -9.266  0.65 11.72     0.204 C 
HETATM   34  O25 GR7 B 201      14.361 -22.974 -10.085  0.65 12.04    -0.358 OA
HETATM   35  C26 GR7 B 201      13.001 -22.733 -10.445  0.65 13.46     0.266 C 
HETATM   36  O27 GR7 B 201      12.241 -23.920 -10.218  0.65 12.98    -0.361 OA
HETATM   37  C30 GR7 B 201      12.492 -21.690  -9.465  0.65 12.55     0.075 C 
HETATM   38  C28 GR7 B 201      11.348 -23.752  -9.110  0.65 12.99     0.171 C 
HETATM   39  C29 GR7 B 201      11.150 -22.246  -9.025  0.65 13.37     0.038 C 
ENDBRANCH  31  32
ENDBRANCH  28  31
ENDBRANCH  26  27
BRANCH  26  40
HETATM   40  C31 GR7 B 201      14.917 -21.951  -3.317  0.65 12.46     0.066 C 
BRANCH  40  41
HETATM   41  C37 GR7 B 201      14.115 -23.261  -3.335  0.65 13.02    -0.056 C 
HETATM   42  C32 GR7 B 201      13.032 -23.438  -2.482  0.65 14.03     0.007 C 
HETATM   43  C33 GR7 B 201      12.310 -24.642  -2.442  0.65 13.26     0.001 C 
HETATM   44  C34 GR7 B 201      12.796 -25.701  -3.196  0.65 13.23     0.000 C 
HETATM   45  C35 GR7 B 201      13.834 -25.539  -4.099  0.65 13.71     0.001 C 
HETATM   46  C36 GR7 B 201      14.566 -24.348  -4.123  0.65 12.94     0.007 C 
ENDBRANCH  40  41
ENDBRANCH  26  40
ENDBRANCH   1  26
TORSDOF 10
ENDMDL
MODEL 6
REMARK VINA RESULT:   -10.124      1.701      4.045
REMARK INTER + INTRA:         -16.832
REMARK INTER:                 -15.153
REMARK INTRA:                  -1.680
REMARK UNBOUND:                -1.085
REMARK  10 active torsions:
REMARK  status: ('A' for Active; 'I' for Inactive)
REMARK    1  A    between atoms: C1_1  and  O38_38 
REMARK    2  A    between atoms: N10_10  and  C15_15 
REMARK    3  A    between atoms: C15_15  and  C16_16 
REMARK    4  A    between atoms: C16_16  and  O17_17 
REMARK    5  A    between atoms: C16_16  and  C18_18 
REMARK    6  A    between atoms: C18_18  and  N19_19 
REMARK    7  A    between atoms: C18_18  and  C31_31 
REMARK       I    between atoms: N19_19  and  C20_20 
REMARK    8  A    between atoms: C20_20  and  O22_22 
REMARK    9  A    between atoms: O22_22  and  C23_23 
REMARK   10  A    between atoms: C31_31  and  C37_37 
ROOT
HETATM    1  C16 GR7 B 201      16.862 -20.287  -4.365  0.65 11.09     0.160 C 
ENDROOT
BRANCH   1   2
HETATM    2  C15 GR7 B 201      18.360 -20.262  -4.681  0.65 12.50     0.169 C 
BRANCH   2   3
HETATM    3  N10 GR7 B 201      18.823 -18.917  -4.935  0.65 15.26    -0.304 N 
HETATM    4  S7  GR7 B 201      19.392 -17.964  -3.777  0.65 15.90     0.261 S 
HETATM    5  C4  GR7 B 201      21.113 -18.227  -3.467  0.65 13.42     0.088 A 
HETATM    6  O8  GR7 B 201      18.742 -18.466  -2.466  0.65 15.29    -0.200 OA
HETATM    7  O9  GR7 B 201      19.206 -16.551  -4.085  0.65 16.57    -0.200 OA
HETATM    8  C3  GR7 B 201      22.160 -17.486  -3.989  0.65 13.99    -0.009 A 
HETATM    9  C5  GR7 B 201      21.469 -19.273  -2.615  0.65 13.26     0.028 A 
HETATM   10  C2  GR7 B 201      23.504 -17.789  -3.668  0.65 14.14     0.047 A 
HETATM   11  C40 GR7 B 201      21.999 -16.397  -4.862  0.65 16.21     0.207 C 
HETATM   12  C1  GR7 B 201      23.834 -18.837  -2.819  0.65 14.73     0.068 A 
HETATM   13  C6  GR7 B 201      22.777 -19.571  -2.300  0.65 13.78     0.038 A 
HETATM   14  O41 GR7 B 201      22.589 -16.895  -6.124  0.65 19.51    -0.387 OA
HETATM   15  C42 GR7 B 201      22.464 -16.067  -7.290  0.65 20.26     0.168 C 
HETATM   16  C43 GR7 B 201      21.423 -16.522  -8.110  0.65 20.30     0.026 C 
HETATM   17  C44 GR7 B 201      20.148 -16.035  -8.146  0.65 20.47     0.002 C 
HETATM   18  C14 GR7 B 201      19.038 -16.442  -8.852  0.65 20.92     0.000 C 
HETATM   19  C13 GR7 B 201      18.056 -17.388  -8.267  0.65 19.92     0.002 C 
HETATM   20  C12 GR7 B 201      18.034 -17.446  -6.762  0.65 18.52     0.021 C 
HETATM   21  C11 GR7 B 201      19.034 -18.487  -6.283  0.65 16.50     0.135 C 
BRANCH  12  22
HETATM   22  O38 GR7 B 201      25.109 -19.178  -2.472  0.65 14.38    -0.356 OA
HETATM   23  C39 GR7 B 201      25.459 -18.712  -1.176  0.65 19.75     0.210 C 
ENDBRANCH  12  22
ENDBRANCH   2   3
ENDBRANCH   1   2
BRANCH   1  24
HETATM   24  O17 GR7 B 201      16.410 -18.960  -4.022  0.65 11.94    -0.392 OA
HETATM   25  H11 GR7 B 201      16.800 -18.696  -3.187  0.65 11.94     0.210 HD
ENDBRANCH   1  24
BRANCH   1  26
HETATM   26  C18 GR7 B 201      16.019 -20.823  -5.517  0.65 11.44     0.121 C 
BRANCH  26  27
HETATM   27  N19 GR7 B 201      14.834 -21.495  -4.966  0.65 12.38    -0.329 N 
HETATM   28  C20 GR7 B 201      14.742 -22.793  -4.702  0.65 12.57     0.361 C 
HETATM   29  O21 GR7 B 201      15.593 -23.707  -4.863  0.65 12.86    -0.238 OA
HETATM   30  H13 GR7 B 201      14.023 -20.923  -4.774  0.65 12.38     0.165 HD
BRANCH  28  31
HETATM   31  O22 GR7 B 201      13.569 -23.140  -4.129  0.65 12.10    -0.296 OA
BRANCH  31  32
HETATM   32  C23 GR7 B 201      13.556 -24.414  -3.469  0.65 12.33     0.166 C 
HETATM   33  C24 GR7 B 201      12.879 -24.165  -2.102  0.65 11.72     0.204 C 
HETATM   34  O25 GR7 B 201      11.490 -24.031  -2.471  0.65 12.04    -0.358 OA
HETATM   35  C26 GR7 B 201      11.191 -24.942  -3.528  0.65 13.46     0.266 C 
HETATM   36  O27 GR7 B 201      10.470 -24.252  -4.548  0.65 12.98    -0.361 OA
HETATM   37  C30 GR7 B 201      12.530 -25.338  -4.125  0.65 12.55     0.075 C 
HETATM   38  C28 GR7 B 201      11.274 -24.092  -5.724  0.65 12.99     0.171 C 
HETATM   39  C29 GR7 B 201      12.301 -25.210  -5.620  0.65 13.37     0.038 C 
ENDBRANCH  31  32
ENDBRANCH  28  31
ENDBRANCH  26  27
BRANCH  26  40
HETATM   40  C31 GR7 B 201      15.540 -19.706  -6.457  0.65 12.46     0.066 C 
BRANCH  40  41
HETATM   41  C37 GR7 B 201      14.912 -20.306  -7.725  0.65 13.02    -0.056 C 
HETATM   42  C32 GR7 B 201      15.711 -20.697  -8.792  0.65 14.03     0.007 C 
HETATM   43  C33 GR7 B 201      15.162 -21.203  -9.982  0.65 13.26     0.001 C 
HETATM   44  C34 GR7 B 201      13.780 -21.179 -10.105  0.65 13.23     0.000 C 
HETATM   45  C35 GR7 B 201      12.958 -20.852  -9.040  0.65 13.71     0.001 C 
HETATM   46  C36 GR7 B 201      13.503 -20.329  -7.864  0.65 12.94     0.007 C 
ENDBRANCH  40  41
ENDBRANCH  26  40
ENDBRANCH   1  26
TORSDOF 10
ENDMDL
MODEL 7
REMARK VINA RESULT:   -10.065      1.744     10.304
REMARK INTER + INTRA:         -16.741
REMARK INTER:                 -15.045
REMARK INTRA:                  -1.696
REMARK UNBOUND:                -1.085
REMARK  10 active torsions:
REMARK  status: ('A' for Active; 'I' for Inactive)
REMARK    1  A    between atoms: C1_1  and  O38_38 
REMARK    2  A    between atoms: N10_10  and  C15_15 
REMARK    3  A    between atoms: C15_15  and  C16_16 
REMARK    4  A    between atoms: C16_16  and  O17_17 
REMARK    5  A    between atoms: C16_16  and  C18_18 
REMARK    6  A    between atoms: C18_18  and  N19_19 
REMARK    7  A    between atoms: C18_18  and  C31_31 
REMARK       I    between atoms: N19_19  and  C20_20 
REMARK    8  A    between atoms: C20_20  and  O22_22 
REMARK    9  A    between atoms: O22_22  and  C23_23 
REMARK   10  A    between atoms: C31_31  and  C37_37 
ROOT
HETATM    1  C16 GR7 B 201      16.161 -18.455  -4.857  0.65 11.09     0.160 C 
ENDROOT
BRANCH   1   2
HETATM    2  C15 GR7 B 201      15.223 -19.610  -4.495  0.65 12.50     0.169 C 
BRANCH   2   3
HETATM    3  N10 GR7 B 201      14.921 -20.425  -5.649  0.65 15.26    -0.304 N 
HETATM    4  S7  GR7 B 201      15.506 -21.906  -5.841  0.65 15.90     0.261 S 
HETATM    5  C4  GR7 B 201      14.521 -23.134  -5.032  0.65 13.42     0.088 A 
HETATM    6  O8  GR7 B 201      16.818 -21.946  -5.022  0.65 15.29    -0.200 OA
HETATM    7  O9  GR7 B 201      15.616 -22.279  -7.246  0.65 16.57    -0.200 OA
HETATM    8  C3  GR7 B 201      13.542 -23.914  -5.622  0.65 13.99    -0.009 A 
HETATM    9  C5  GR7 B 201      14.740 -23.352  -3.672  0.65 13.26     0.028 A 
HETATM   10  C2  GR7 B 201      12.815 -24.869  -4.873  0.65 14.14     0.047 A 
HETATM   11  C40 GR7 B 201      13.181 -23.838  -6.978  0.65 16.21     0.207 C 
HETATM   12  C1  GR7 B 201      13.050 -25.067  -3.519  0.65 14.73     0.068 A 
HETATM   13  C6  GR7 B 201      14.035 -24.281  -2.938  0.65 13.78     0.038 A 
HETATM   14  O41 GR7 B 201      11.800 -23.310  -6.924  0.65 19.51    -0.387 OA
HETATM   15  C42 GR7 B 201      11.167 -22.973  -8.167  0.65 20.26     0.168 C 
HETATM   16  C43 GR7 B 201      11.218 -21.590  -8.390  0.65 20.30     0.026 C 
HETATM   17  C44 GR7 B 201      12.129 -20.927  -9.160  0.65 20.47     0.002 C 
HETATM   18  C14 GR7 B 201      12.317 -19.583  -9.394  0.65 20.92     0.000 C 
HETATM   19  C13 GR7 B 201      13.267 -18.784  -8.583  0.65 19.92     0.002 C 
HETATM   20  C12 GR7 B 201      14.356 -19.573  -7.904  0.65 18.52     0.021 C 
HETATM   21  C11 GR7 B 201      13.871 -20.030  -6.536  0.65 16.50     0.135 C 
BRANCH  12  22
HETATM   22  O38 GR7 B 201      12.384 -25.972  -2.744  0.65 14.38    -0.356 OA
HETATM   23  C39 GR7 B 201      12.469 -25.663  -1.360  0.65 19.75     0.210 C 
ENDBRANCH  12  22
ENDBRANCH   2   3
ENDBRANCH   1   2
BRANCH   1  24
HETATM   24  O17 GR7 B 201      15.728 -17.246  -4.202  0.65 11.94    -0.392 OA
HETATM   25  H11 GR7 B 201      15.385 -17.459  -3.331  0.65 11.94     0.210 HD
ENDBRANCH   1  24
BRANCH   1  26
HETATM   26  C18 GR7 B 201      17.615 -18.732  -4.491  0.65 11.44     0.121 C 
BRANCH  26  27
HETATM   27  N19 GR7 B 201      18.463 -17.687  -5.083  0.65 12.38    -0.329 N 
HETATM   28  C20 GR7 B 201      19.209 -17.830  -6.171  0.65 12.57     0.361 C 
HETATM   29  O21 GR7 B 201      19.372 -18.840  -6.905  0.65 12.86    -0.238 OA
HETATM   30  H13 GR7 B 201      18.477 -16.786  -4.624  0.65 12.38     0.165 HD
BRANCH  28  31
HETATM   31  O22 GR7 B 201      19.831 -16.691  -6.546  0.65 12.10    -0.296 OA
BRANCH  31  32
HETATM   32  C23 GR7 B 201      20.221 -16.626  -7.926  0.65 12.33     0.166 C 
HETATM   33  C24 GR7 B 201      19.443 -15.429  -8.519  0.65 11.72     0.204 C 
HETATM   34  O25 GR7 B 201      20.159 -14.300  -7.975  0.65 12.04    -0.358 OA
HETATM   35  C26 GR7 B 201      21.554 -14.600  -7.934  0.65 13.46     0.266 C 
HETATM   36  O27 GR7 B 201      22.070 -14.244  -6.651  0.65 12.98    -0.361 OA
HETATM   37  C30 GR7 B 201      21.656 -16.112  -8.045  0.65 12.55     0.075 C 
HETATM   38  C28 GR7 B 201      22.410 -15.412  -5.893  0.65 12.99     0.171 C 
HETATM   39  C29 GR7 B 201      22.643 -16.479  -6.952  0.65 13.37     0.038 C 
ENDBRANCH  31  32
ENDBRANCH  28  31
ENDBRANCH  26  27
BRANCH  26  40
HETATM   40  C31 GR7 B 201      17.844 -18.728  -2.972  0.65 12.46     0.066 C 
BRANCH  40  41
HETATM   41  C37 GR7 B 201      19.331 -18.950  -2.653  0.65 13.02    -0.056 C 
HETATM   42  C32 GR7 B 201      20.071 -17.963  -2.014  0.65 14.03     0.007 C 
HETATM   43  C33 GR7 B 201      21.442 -18.118  -1.753  0.65 13.26     0.001 C 
HETATM   44  C34 GR7 B 201      22.066 -19.245  -2.273  0.65 13.23     0.000 C 
HETATM   45  C35 GR7 B 201      21.345 -20.271  -2.860  0.65 13.71     0.001 C 
HETATM   46  C36 GR7 B 201      19.986 -20.108  -3.139  0.65 12.94     0.007 C 
ENDBRANCH  40  41
ENDBRANCH  26  40
ENDBRANCH   1  26
TORSDOF 10
ENDMDL
MODEL 8
REMARK VINA RESULT:   -10.056      2.722      9.438
REMARK INTER + INTRA:         -16.726
REMARK INTER:                 -15.345
REMARK INTRA:                  -1.381
REMARK UNBOUND:                -1.085
REMARK  10 active torsions:
REMARK  status: ('A' for Active; 'I' for Inactive)
REMARK    1  A    between atoms: C1_1  and  O38_38 
REMARK    2  A    between atoms: N10_10  and  C15_15 
REMARK    3  A    between atoms: C15_15  and  C16_16 
REMARK    4  A    between atoms: C16_16  and  O17_17 
REMARK    5  A    between atoms: C16_16  and  C18_18 
REMARK    6  A    between atoms: C18_18  and  N19_19 
REMARK    7  A    between atoms: C18_18  and  C31_31 
REMARK       I    between atoms: N19_19  and  C20_20 
REMARK    8  A    between atoms: C20_20  and  O22_22 
REMARK    9  A    between atoms: O22_22  and  C23_23 
REMARK   10  A    between atoms: C31_31  and  C37_37 
ROOT
HETATM    1  C16 GR7 B 201      16.157 -21.676  -5.778  0.65 11.09     0.160 C 
ENDROOT
BRANCH   1   2
HETATM    2  C15 GR7 B 201      15.181 -22.096  -6.882  0.65 12.50     0.169 C 
BRANCH   2   3
HETATM    3  N10 GR7 B 201      13.910 -22.507  -6.333  0.65 15.26    -0.304 N 
HETATM    4  S7  GR7 B 201      12.510 -22.163  -7.037  0.65 15.90     0.261 S 
HETATM    5  C4  GR7 B 201      12.068 -23.341  -8.280  0.65 13.42     0.088 A 
HETATM    6  O8  GR7 B 201      12.766 -20.885  -7.872  0.65 15.29    -0.200 OA
HETATM    7  O9  GR7 B 201      11.413 -22.093  -6.079  0.65 16.57    -0.200 OA
HETATM    8  C3  GR7 B 201      11.221 -24.424  -8.115  0.65 13.99    -0.009 A 
HETATM    9  C5  GR7 B 201      12.613 -23.179  -9.554  0.65 13.26     0.028 A 
HETATM   10  C2  GR7 B 201      10.939 -25.303  -9.187  0.65 14.14     0.047 A 
HETATM   11  C40 GR7 B 201      10.580 -24.748  -6.908  0.65 16.21     0.207 C 
HETATM   12  C1  GR7 B 201      11.494 -25.122 -10.446  0.65 14.73     0.068 A 
HETATM   13  C6  GR7 B 201      12.340 -24.033 -10.601  0.65 13.78     0.038 A 
HETATM   14  O41 GR7 B 201      11.217 -26.028  -6.529  0.65 19.51    -0.387 OA
HETATM   15  C42 GR7 B 201      10.887 -26.583  -5.246  0.65 20.26     0.168 C 
HETATM   16  C43 GR7 B 201      11.897 -26.309  -4.314  0.65 20.30     0.026 C 
HETATM   17  C44 GR7 B 201      11.904 -25.294  -3.402  0.65 20.47     0.002 C 
HETATM   18  C14 GR7 B 201      12.859 -24.891  -2.496  0.65 20.92     0.000 C 
HETATM   19  C13 GR7 B 201      13.847 -23.837  -2.832  0.65 19.92     0.002 C 
HETATM   20  C12 GR7 B 201      13.437 -22.897  -3.935  0.65 18.52     0.021 C 
HETATM   21  C11 GR7 B 201      13.877 -23.468  -5.274  0.65 16.50     0.135 C 
BRANCH  12  22
HETATM   22  O38 GR7 B 201      11.260 -25.935 -11.517  0.65 14.38    -0.356 OA
HETATM   23  C39 GR7 B 201      12.239 -26.957 -11.643  0.65 19.75     0.210 C 
ENDBRANCH  12  22
ENDBRANCH   2   3
ENDBRANCH   1   2
BRANCH   1  24
HETATM   24  O17 GR7 B 201      17.219 -22.645  -5.666  0.65 11.94    -0.392 OA
HETATM   25  H11 GR7 B 201      17.908 -22.439  -6.302  0.65 11.94     0.210 HD
ENDBRANCH   1  24
BRANCH   1  26
HETATM   26  C18 GR7 B 201      16.759 -20.295  -6.010  0.65 11.44     0.121 C 
BRANCH  26  27
HETATM   27  N19 GR7 B 201      17.688 -19.990  -4.912  0.65 12.38    -0.329 N 
HETATM   28  C20 GR7 B 201      17.553 -18.992  -4.048  0.65 12.57     0.361 C 
HETATM   29  O21 GR7 B 201      16.657 -18.111  -3.973  0.65 12.86    -0.238 OA
HETATM   30  H13 GR7 B 201      18.495 -20.590  -4.808  0.65 12.38     0.165 HD
BRANCH  28  31
HETATM   31  O22 GR7 B 201      18.506 -18.983  -3.090  0.65 12.10    -0.296 OA
BRANCH  31  32
HETATM   32  C23 GR7 B 201      19.860 -18.961  -3.567  0.65 12.33     0.166 C 
HETATM   33  C24 GR7 B 201      20.547 -17.804  -2.806  0.65 11.72     0.204 C 
HETATM   34  O25 GR7 B 201      20.726 -18.369  -1.490  0.65 12.04    -0.358 OA
HETATM   35  C26 GR7 B 201      21.052 -19.754  -1.610  0.65 13.46     0.266 C 
HETATM   36  O27 GR7 B 201      20.241 -20.503  -0.704  0.65 12.98    -0.361 OA
HETATM   37  C30 GR7 B 201      20.634 -20.158  -3.013  0.65 12.55     0.075 C 
HETATM   38  C28 GR7 B 201      19.273 -21.288  -1.413  0.65 12.99     0.171 C 
HETATM   39  C29 GR7 B 201      19.884 -21.459  -2.796  0.65 13.37     0.038 C 
ENDBRANCH  31  32
ENDBRANCH  28  31
ENDBRANCH  26  27
BRANCH  26  40
HETATM   40  C31 GR7 B 201      17.538 -20.212  -7.331  0.65 12.46     0.066 C 
BRANCH  40  41
HETATM   41  C37 GR7 B 201      18.423 -18.956  -7.355  0.65 13.02    -0.056 C 
HETATM   42  C32 GR7 B 201      17.876 -17.714  -7.653  0.65 14.03     0.007 C 
HETATM   43  C33 GR7 B 201      18.668 -16.556  -7.730  0.65 13.26     0.001 C 
HETATM   44  C34 GR7 B 201      20.043 -16.717  -7.624  0.65 13.23     0.000 C 
HETATM   45  C35 GR7 B 201      20.610 -17.929  -7.269  0.65 13.71     0.001 C 
HETATM   46  C36 GR7 B 201      19.825 -19.085  -7.213  0.65 12.94     0.007 C 
ENDBRANCH  40  41
ENDBRANCH  26  40
ENDBRANCH   1  26
TORSDOF 10
ENDMDL
MODEL 9
REMARK VINA RESULT:    -9.750      1.878      3.448
REMARK INTER + INTRA:         -16.250
REMARK INTER:                 -15.164
REMARK INTRA:                  -1.085
REMARK UNBOUND:                -1.085
REMARK  10 active torsions:
REMARK  status: ('A' for Active; 'I' for Inactive)
REMARK    1  A    between atoms: C1_1  and  O38_38 
REMARK    2  A    between atoms: N10_10  and  C15_15 
REMARK    3  A    between atoms: C15_15  and  C16_16 
REMARK    4  A    between atoms: C16_16  and  O17_17 
REMARK    5  A    between atoms: C16_16  and  C18_18 
REMARK    6  A    between atoms: C18_18  and  N19_19 
REMARK    7  A    between atoms: C18_18  and  C31_31 
REMARK       I    between atoms: N19_19  and  C20_20 
REMARK    8  A    between atoms: C20_20  and  O22_22 
REMARK    9  A    between atoms: O22_22  and  C23_23 
REMARK   10  A    between atoms: C31_31  and  C37_37 
ROOT
HETATM    1  C16 GR7 B 201      16.129 -19.266  -6.196  0.65 11.09     0.160 C 
ENDROOT
BRANCH   1   2
HETATM    2  C15 GR7 B 201      16.998 -18.168  -5.575  0.65 12.50     0.169 C 
BRANCH   2   3
HETATM    3  N10 GR7 B 201      18.329 -18.650  -5.285  0.65 15.26    -0.304 N 
HETATM    4  S7  GR7 B 201      19.482 -18.731  -6.398  0.65 15.90     0.261 S 
HETATM    5  C4  GR7 B 201      20.350 -17.201  -6.586  0.65 13.42     0.088 A 
HETATM    6  O8  GR7 B 201      18.746 -18.859  -7.753  0.65 15.29    -0.200 OA
HETATM    7  O9  GR7 B 201      20.464 -19.767  -6.101  0.65 16.57    -0.200 OA
HETATM    8  C3  GR7 B 201      21.553 -16.866  -5.990  0.65 13.99    -0.009 A 
HETATM    9  C5  GR7 B 201      19.786 -16.229  -7.413  0.65 13.26     0.028 A 
HETATM   10  C2  GR7 B 201      22.159 -15.607  -6.215  0.65 14.14     0.047 A 
HETATM   11  C40 GR7 B 201      22.270 -17.713  -5.128  0.65 16.21     0.207 C 
HETATM   12  C1  GR7 B 201      21.577 -14.655  -7.041  0.65 14.73     0.068 A 
HETATM   13  C6  GR7 B 201      20.372 -15.002  -7.636  0.65 13.78     0.038 A 
HETATM   14  O41 GR7 B 201      22.186 -17.011  -3.828  0.65 19.51    -0.387 OA
HETATM   15  C42 GR7 B 201      22.706 -17.684  -2.672  0.65 20.26     0.168 C 
HETATM   16  C43 GR7 B 201      21.670 -18.264  -1.929  0.65 20.30     0.026 C 
HETATM   17  C44 GR7 B 201      21.265 -19.566  -1.982  0.65 20.47     0.002 C 
HETATM   18  C14 GR7 B 201      20.228 -20.224  -1.358  0.65 20.92     0.000 C 
HETATM   19  C13 GR7 B 201      18.907 -20.378  -2.013  0.65 19.92     0.002 C 
HETATM   20  C12 GR7 B 201      18.916 -20.278  -3.515  0.65 18.52     0.021 C 
HETATM   21  C11 GR7 B 201      18.736 -18.824  -3.926  0.65 16.50     0.135 C 
BRANCH  12  22
HETATM   22  O38 GR7 B 201      22.111 -13.426  -7.297  0.65 14.38    -0.356 OA
HETATM   23  C39 GR7 B 201      23.353 -13.509  -7.983  0.65 19.75     0.210 C 
ENDBRANCH  12  22
ENDBRANCH   2   3
ENDBRANCH   1   2
BRANCH   1  24
HETATM   24  O17 GR7 B 201      16.936 -20.426  -6.486  0.65 11.94    -0.392 OA
HETATM   25  H11 GR7 B 201      16.635 -20.828  -7.304  0.65 11.94     0.210 HD
ENDBRANCH   1  24
BRANCH   1  26
HETATM   26  C18 GR7 B 201      14.962 -19.676  -5.306  0.65 11.44     0.121 C 
BRANCH  26  27
HETATM   27  N19 GR7 B 201      13.994 -20.436  -6.110  0.65 12.38    -0.329 N 
HETATM   28  C20 GR7 B 201      13.380 -19.986  -7.197  0.65 12.57     0.361 C 
HETATM   29  O21 GR7 B 201      13.463 -18.862  -7.759  0.65 12.86    -0.238 OA
HETATM   30  H13 GR7 B 201      13.779 -21.377  -5.810  0.65 12.38     0.165 HD
BRANCH  28  31
HETATM   31  O22 GR7 B 201      12.598 -20.914  -7.791  0.65 12.10    -0.296 OA
BRANCH  31  32
HETATM   32  C23 GR7 B 201      12.904 -22.278  -7.469  0.65 12.33     0.166 C 
HETATM   33  C24 GR7 B 201      11.597 -23.065  -7.716  0.65 11.72     0.204 C 
HETATM   34  O25 GR7 B 201      11.547 -23.126  -9.157  0.65 12.04    -0.358 OA
HETATM   35  C26 GR7 B 201      12.869 -23.294  -9.670  0.65 13.46     0.266 C 
HETATM   36  O27 GR7 B 201      13.076 -22.368 -10.737  0.65 12.98    -0.361 OA
HETATM   37  C30 GR7 B 201      13.804 -22.887  -8.545  0.65 12.55     0.075 C 
HETATM   38  C28 GR7 B 201      14.002 -21.343 -10.353  0.65 12.99     0.171 C 
HETATM   39  C29 GR7 B 201      14.811 -21.983  -9.233  0.65 13.37     0.038 C 
ENDBRANCH  31  32
ENDBRANCH  28  31
ENDBRANCH  26  27
BRANCH  26  40
HETATM   40  C31 GR7 B 201      15.407 -20.563  -4.132  0.65 12.46     0.066 C 
BRANCH  40  41
HETATM   41  C37 GR7 B 201      14.859 -21.989  -4.300  0.65 13.02    -0.056 C 
HETATM   42  C32 GR7 B 201      13.690 -22.376  -3.658  0.65 14.03     0.007 C 
HETATM   43  C33 GR7 B 201      13.191 -23.686  -3.753  0.65 13.26     0.001 C 
HETATM   44  C34 GR7 B 201      13.980 -24.620  -4.410  0.65 13.23     0.000 C 
HETATM   45  C35 GR7 B 201      15.117 -24.253  -5.109  0.65 13.71     0.001 C 
HETATM   46  C36 GR7 B 201      15.624 -22.955  -4.996  0.65 12.94     0.007 C 
ENDBRANCH  40  41
ENDBRANCH  26  40
ENDBRANCH   1  26
TORSDOF 10
ENDMDL
