MODEL 1
REMARK VINA RESULT:   -12.925      0.000      0.000
REMARK ITER + INTRA:          -19.096
REMARK INTER:                 -18.630
REMARK INTRA:                  -0.466
REMARK UNBOUND:                -0.883
REMARK Flexibility Score: inf
REMARK Active torsions [ 7 ] -> [ 7 ]
ROOT
ATOM      1  C1  LIG L   1      15.831  54.713  12.402  1.00  0.00     0.038 A 
ATOM      2  C2  LIG L   1      16.912  54.551  11.422  1.00  0.00    -0.029 A 
ATOM      3  C3  LIG L   1      17.889  53.526  11.654  1.00  0.00     0.007 A 
ATOM      4  C4  LIG L   1      17.805  52.681  12.819  1.00  0.00     0.024 A 
ATOM      5  C5  LIG L   1      16.755  52.833  13.770  1.00  0.00     0.035 A 
ATOM      6  C6  LIG L   1      15.763  53.872  13.541  1.00  0.00     0.047 A 
ATOM      7  C7  LIG L   1      17.047  55.424  10.153  1.00  0.00     0.045 C 
ENDROOT
BRANCH    1    8
ATOM      8  N1  LIG L   1      14.852  55.694  12.232  1.00  0.00    -0.283 N 
ATOM      9  H1  LIG L   1      13.976  55.448  11.854  1.00  0.00     0.155 HD
BRANCH    8   10
ATOM     10  C8  LIG L   1      15.098  57.011  12.588  1.00  0.00     0.220 A 
ATOM     11  C9  LIG L   1      14.269  59.238  12.745  1.00  0.00     0.077 A 
ATOM     12 C10  LIG L   1      15.524  59.695  13.268  1.00  0.00     0.048 A 
ATOM     13  N2  LIG L   1      14.104  57.909  12.426  1.00  0.00    -0.214 NA
ATOM     14 C11  LIG L   1      16.547  58.734  13.429  1.00  0.00     0.116 A 
ATOM     15  N3  LIG L   1      16.321  57.418  13.089  1.00  0.00    -0.223 NA
BRANCH   11   16
ATOM     16 C12  LIG L   1      13.091  60.134  12.514  1.00  0.00     0.019 A 
ATOM     17 C13  LIG L   1      11.819  62.286  12.850  1.00  0.00     0.020 A 
ATOM     18 C14  LIG L   1      12.977  61.461  13.105  1.00  0.00     0.013 A 
ATOM     19 C15  LIG L   1      10.782  61.763  12.000  1.00  0.00     0.111 A 
ATOM     20  N4  LIG L   1      10.904  60.484  11.435  1.00  0.00    -0.263 NA
ATOM     21 C16  LIG L   1      12.007  59.668  11.662  1.00  0.00     0.120 A 
ENDBRANCH   11   16
ENDBRANCH    8   10
ENDBRANCH    1    8
BRANCH    5   22
ATOM     22  N5  LIG L   1      16.733  51.943  14.905  1.00  0.00    -0.281 N 
ATOM     23 C17  LIG L   1      15.695  51.726  15.796  1.00  0.00     0.248 C 
ATOM     24  H2  LIG L   1      17.557  51.428  15.066  1.00  0.00     0.155 HD
ATOM     25  O1  LIG L   1      14.697  52.426  15.879  1.00  0.00    -0.270 OA
BRANCH   23   26
ATOM     26 C18  LIG L   1      15.786  50.572  16.742  1.00  0.00     0.037 A 
ATOM     27 C19  LIG L   1      17.042  49.841  16.931  1.00  0.00     0.013 A 
ATOM     28 C20  LIG L   1      14.603  50.170  17.473  1.00  0.00     0.013 A 
ATOM     29 C21  LIG L   1      17.097  48.722  17.837  1.00  0.00     0.002 A 
ATOM     30 C22  LIG L   1      14.661  49.073  18.361  1.00  0.00     0.002 A 
ATOM     31 C23  LIG L   1      15.892  48.327  18.563  1.00  0.00    -0.064 A 
BRANCH   31   32
ATOM     32 C24  LIG L   1      15.854  47.132  19.534  1.00  0.00    -0.043 C 
BRANCH   32   33
ATOM     33  N6  LIG L   1      17.129  46.771  20.224  1.00  0.00     0.380 N 
ATOM     34 C25  LIG L   1      17.442  47.767  21.314  1.00  0.00    -0.097 C 
ATOM     35 C26  LIG L   1      17.087  45.354  20.803  1.00  0.00    -0.097 C 
ATOM     36  H3  LIG L   1      17.868  46.798  19.522  1.00  0.00    -0.082 HD
ATOM     37 C27  LIG L   1      18.776  47.421  22.032  1.00  0.00    -0.098 C 
ATOM     38 C28  LIG L   1      18.436  44.985  21.502  1.00  0.00    -0.098 C 
ATOM     39  N7  LIG L   1      18.736  46.009  22.598  1.00  0.00     0.375 N 
ATOM     40 C29  LIG L   1      19.974  45.632  23.295  1.00  0.00    -0.096 C 
ATOM     41  H4  LIG L   1      17.983  46.006  23.286  1.00  0.00    -0.082 HD
ENDBRANCH   32   33
ENDBRANCH   31   32
ENDBRANCH   23   26
ENDBRANCH    5   22
TORSDOF 7
ENDMDL
MODEL 2
REMARK VINA RESULT:   -10.967      3.012     12.421
REMARK ITER + INTRA:          -16.337
REMARK INTER:                 -15.378
REMARK INTRA:                  -0.959
REMARK UNBOUND:                -0.883
REMARK Flexibility Score: inf
REMARK Active torsions [ 7 ] -> [ 7 ]
ROOT
ATOM      1  C1  LIG L   1      16.852  48.698  17.625  1.00  0.00     0.038 A 
ATOM      2  C2  LIG L   1      15.532  48.422  18.206  1.00  0.00    -0.029 A 
ATOM      3  C3  LIG L   1      14.472  49.357  17.956  1.00  0.00     0.007 A 
ATOM      4  C4  LIG L   1      14.703  50.533  17.154  1.00  0.00     0.024 A 
ATOM      5  C5  LIG L   1      15.982  50.802  16.586  1.00  0.00     0.035 A 
ATOM      6  C6  LIG L   1      17.061  49.859  16.837  1.00  0.00     0.047 A 
ATOM      7  C7  LIG L   1      15.226  47.175  19.068  1.00  0.00     0.045 C 
ENDROOT
BRANCH    1    8
ATOM      8  N1  LIG L   1      17.923  47.827  17.834  1.00  0.00    -0.283 N 
ATOM      9  H1  LIG L   1      17.970  46.983  17.329  1.00  0.00     0.155 HD
BRANCH    8   10
ATOM     10  C8  LIG L   1      18.920  48.137  18.746  1.00  0.00     0.220 A 
ATOM     11  C9  LIG L   1      20.945  49.312  19.185  1.00  0.00     0.077 A 
ATOM     12 C10  LIG L   1      20.982  48.797  20.523  1.00  0.00     0.048 A 
ATOM     13  N2  LIG L   1      19.910  48.962  18.347  1.00  0.00    -0.214 NA
ATOM     14 C11  LIG L   1      19.933  47.936  20.916  1.00  0.00     0.116 A 
ATOM     15  N3  LIG L   1      18.927  47.621  20.029  1.00  0.00    -0.223 NA
BRANCH   11   16
ATOM     16 C12  LIG L   1      21.984  50.230  18.620  1.00  0.00     0.019 A 
ATOM     17 C13  LIG L   1      24.212  50.682  17.527  1.00  0.00     0.020 A 
ATOM     18 C14  LIG L   1      23.243  49.754  18.060  1.00  0.00     0.013 A 
ATOM     19 C15  LIG L   1      23.904  52.088  17.566  1.00  0.00     0.111 A 
ATOM     20  N4  LIG L   1      22.689  52.535  18.107  1.00  0.00    -0.263 NA
ATOM     21 C16  LIG L   1      21.736  51.664  18.625  1.00  0.00     0.120 A 
ENDBRANCH   11   16
ENDBRANCH    8   10
ENDBRANCH    1    8
BRANCH    5   22
ATOM     22  N5  LIG L   1      16.133  51.993  15.787  1.00  0.00    -0.281 N 
ATOM     23 C17  LIG L   1      15.645  52.232  14.513  1.00  0.00     0.248 C 
ATOM     24  H2  LIG L   1      16.645  52.727  16.199  1.00  0.00     0.155 HD
ATOM     25  O1  LIG L   1      15.184  51.372  13.777  1.00  0.00    -0.270 OA
BRANCH   23   26
ATOM     26 C18  LIG L   1      15.689  53.624  13.972  1.00  0.00     0.037 A 
ATOM     27 C19  LIG L   1      16.962  54.319  13.765  1.00  0.00     0.013 A 
ATOM     28 C20  LIG L   1      14.445  54.294  13.659  1.00  0.00     0.013 A 
ATOM     29 C21  LIG L   1      16.976  55.669  13.258  1.00  0.00     0.002 A 
ATOM     30 C22  LIG L   1      14.462  55.616  13.161  1.00  0.00     0.002 A 
ATOM     31 C23  LIG L   1      15.710  56.331  12.952  1.00  0.00    -0.064 A 
BRANCH   31   32
ATOM     32 C24  LIG L   1      15.629  57.777  12.427  1.00  0.00    -0.043 C 
BRANCH   32   33
ATOM     33  N6  LIG L   1      14.360  58.524  12.677  1.00  0.00     0.380 N 
ATOM     34 C25  LIG L   1      14.655  59.913  13.189  1.00  0.00    -0.097 C 
ATOM     35 C26  LIG L   1      13.482  58.601  11.424  1.00  0.00    -0.097 C 
ATOM     36  H3  LIG L   1      13.842  58.007  13.387  1.00  0.00    -0.082 HD
ATOM     37 C27  LIG L   1      13.346  60.701  13.476  1.00  0.00    -0.098 C 
ATOM     38 C28  LIG L   1      12.149  59.367  11.710  1.00  0.00    -0.098 C 
ATOM     39  N7  LIG L   1      12.471  60.768  12.232  1.00  0.00     0.375 N 
ATOM     40 C29  LIG L   1      11.221  61.511  12.446  1.00  0.00    -0.096 C 
ATOM     41  H4  LIG L   1      13.016  61.278  11.536  1.00  0.00    -0.082 HD
ENDBRANCH   32   33
ENDBRANCH   31   32
ENDBRANCH   23   26
ENDBRANCH    5   22
TORSDOF 7
ENDMDL
MODEL 3
REMARK VINA RESULT:   -10.787      3.713     12.192
REMARK ITER + INTRA:          -16.083
REMARK INTER:                 -15.933
REMARK INTRA:                  -0.150
REMARK UNBOUND:                -0.883
REMARK Flexibility Score: inf
REMARK Active torsions [ 7 ] -> [ 7 ]
ROOT
ATOM      1  C1  LIG L   1      18.036  48.627  18.840  1.00  0.00     0.038 A 
ATOM      2  C2  LIG L   1      17.033  47.559  18.925  1.00  0.00    -0.029 A 
ATOM      3  C3  LIG L   1      15.942  47.578  17.993  1.00  0.00     0.007 A 
ATOM      4  C4  LIG L   1      15.841  48.619  17.001  1.00  0.00     0.024 A 
ATOM      5  C5  LIG L   1      16.815  49.656  16.913  1.00  0.00     0.035 A 
ATOM      6  C6  LIG L   1      17.922  49.643  17.857  1.00  0.00     0.047 A 
ATOM      7  C7  LIG L   1      17.095  46.414  19.963  1.00  0.00     0.045 C 
ENDROOT
BRANCH    1    8
ATOM      8  N1  LIG L   1      19.120  48.664  19.721  1.00  0.00    -0.283 N 
ATOM      9  H1  LIG L   1      18.968  48.879  20.670  1.00  0.00     0.155 HD
BRANCH    8   10
ATOM     10  C8  LIG L   1      20.405  48.400  19.274  1.00  0.00     0.220 A 
ATOM     11  C9  LIG L   1      22.477  49.275  18.488  1.00  0.00     0.077 A 
ATOM     12 C10  LIG L   1      23.010  47.950  18.347  1.00  0.00     0.048 A 
ATOM     13  N2  LIG L   1      21.191  49.448  18.950  1.00  0.00    -0.214 NA
ATOM     14 C11  LIG L   1      22.167  46.871  18.694  1.00  0.00     0.116 A 
ATOM     15  N3  LIG L   1      20.888  47.110  19.148  1.00  0.00    -0.223 NA
BRANCH   11   16
ATOM     16 C12  LIG L   1      23.244  50.517  18.158  1.00  0.00     0.019 A 
ATOM     17 C13  LIG L   1      24.971  51.793  16.834  1.00  0.00     0.020 A 
ATOM     18 C14  LIG L   1      24.259  50.568  17.113  1.00  0.00     0.013 A 
ATOM     19 C15  LIG L   1      24.653  52.960  17.615  1.00  0.00     0.111 A 
ATOM     20  N4  LIG L   1      23.673  52.900  18.617  1.00  0.00    -0.263 NA
ATOM     21 C16  LIG L   1      22.971  51.735  18.907  1.00  0.00     0.120 A 
ENDBRANCH   11   16
ENDBRANCH    8   10
ENDBRANCH    1    8
BRANCH    5   22
ATOM     22  N5  LIG L   1      16.650  50.657  15.889  1.00  0.00    -0.281 N 
ATOM     23 C17  LIG L   1      15.674  51.636  15.804  1.00  0.00     0.248 C 
ATOM     24  H2  LIG L   1      17.313  50.642  15.160  1.00  0.00     0.155 HD
ATOM     25  O1  LIG L   1      14.663  51.665  16.489  1.00  0.00    -0.270 OA
BRANCH   23   26
ATOM     26 C18  LIG L   1      15.838  52.734  14.803  1.00  0.00     0.037 A 
ATOM     27 C19  LIG L   1      14.830  53.787  14.659  1.00  0.00     0.013 A 
ATOM     28 C20  LIG L   1      17.013  52.743  13.958  1.00  0.00     0.013 A 
ATOM     29 C21  LIG L   1      15.004  54.825  13.674  1.00  0.00     0.002 A 
ATOM     30 C22  LIG L   1      17.182  53.762  12.995  1.00  0.00     0.002 A 
ATOM     31 C23  LIG L   1      16.195  54.816  12.827  1.00  0.00    -0.064 A 
BRANCH   31   32
ATOM     32 C24  LIG L   1      16.453  55.872  11.736  1.00  0.00    -0.043 C 
BRANCH   32   33
ATOM     33  N6  LIG L   1      15.766  57.190  11.883  1.00  0.00     0.380 N 
ATOM     34 C25  LIG L   1      14.279  56.997  12.052  1.00  0.00    -0.097 C 
ATOM     35 C26  LIG L   1      16.327  58.003  13.053  1.00  0.00    -0.097 C 
ATOM     36  H3  LIG L   1      15.940  57.717  11.027  1.00  0.00    -0.082 HD
ATOM     37 C27  LIG L   1      13.542  58.358  12.187  1.00  0.00    -0.098 C 
ATOM     38 C28  LIG L   1      15.613  59.387  13.179  1.00  0.00    -0.098 C 
ATOM     39  N7  LIG L   1      14.108  59.168  13.344  1.00  0.00     0.375 N 
ATOM     40 C29  LIG L   1      13.440  60.466  13.521  1.00  0.00    -0.096 C 
ATOM     41  H4  LIG L   1      13.931  58.615  14.183  1.00  0.00    -0.082 HD
ENDBRANCH   32   33
ENDBRANCH   31   32
ENDBRANCH   23   26
ENDBRANCH    5   22
TORSDOF 7
ENDMDL
MODEL 4
REMARK VINA RESULT:   -10.693      3.913     12.365
REMARK ITER + INTRA:          -15.951
REMARK INTER:                 -15.038
REMARK INTRA:                  -0.913
REMARK UNBOUND:                -0.883
REMARK Flexibility Score: inf
REMARK Active torsions [ 7 ] -> [ 7 ]
ROOT
ATOM      1  C1  LIG L   1      18.399  48.702  18.901  1.00  0.00     0.038 A 
ATOM      2  C2  LIG L   1      17.431  47.603  19.001  1.00  0.00    -0.029 A 
ATOM      3  C3  LIG L   1      16.298  47.616  18.121  1.00  0.00     0.007 A 
ATOM      4  C4  LIG L   1      16.122  48.680  17.164  1.00  0.00     0.024 A 
ATOM      5  C5  LIG L   1      17.062  49.747  17.062  1.00  0.00     0.035 A 
ATOM      6  C6  LIG L   1      18.211  49.741  17.954  1.00  0.00     0.047 A 
ATOM      7  C7  LIG L   1      17.573  46.433  20.002  1.00  0.00     0.045 C 
ENDROOT
BRANCH    1    8
ATOM      8  N1  LIG L   1      19.521  48.746  19.732  1.00  0.00    -0.283 N 
ATOM      9  H1  LIG L   1      19.411  48.963  20.687  1.00  0.00     0.155 HD
BRANCH    8   10
ATOM     10  C8  LIG L   1      20.787  48.490  19.229  1.00  0.00     0.220 A 
ATOM     11  C9  LIG L   1      22.825  49.376  18.372  1.00  0.00     0.077 A 
ATOM     12 C10  LIG L   1      23.350  48.054  18.187  1.00  0.00     0.048 A 
ATOM     13  N2  LIG L   1      21.560  49.542  18.890  1.00  0.00    -0.214 NA
ATOM     14 C11  LIG L   1      22.521  46.969  18.552  1.00  0.00     0.116 A 
ATOM     15  N3  LIG L   1      21.262  47.202  19.061  1.00  0.00    -0.223 NA
BRANCH   11   16
ATOM     16 C12  LIG L   1      23.580  50.623  18.031  1.00  0.00     0.019 A 
ATOM     17 C13  LIG L   1      25.199  51.940  16.614  1.00  0.00     0.020 A 
ATOM     18 C14  LIG L   1      24.495  50.712  16.900  1.00  0.00     0.013 A 
ATOM     19 C15  LIG L   1      24.974  53.071  17.475  1.00  0.00     0.111 A 
ATOM     20  N4  LIG L   1      24.090  52.975  18.560  1.00  0.00    -0.263 NA
ATOM     21 C16  LIG L   1      23.397  51.806  18.859  1.00  0.00     0.120 A 
ENDBRANCH   11   16
ENDBRANCH    8   10
ENDBRANCH    1    8
BRANCH    5   22
ATOM     22  N5  LIG L   1      16.822  50.770  16.075  1.00  0.00    -0.281 N 
ATOM     23 C17  LIG L   1      15.714  51.592  15.952  1.00  0.00     0.248 C 
ATOM     24  H2  LIG L   1      17.533  50.900  15.406  1.00  0.00     0.155 HD
ATOM     25  O1  LIG L   1      14.660  51.425  16.548  1.00  0.00    -0.270 OA
BRANCH   23   26
ATOM     26 C18  LIG L   1      15.781  52.760  15.022  1.00  0.00     0.037 A 
ATOM     27 C19  LIG L   1      17.051  53.189  14.430  1.00  0.00     0.013 A 
ATOM     28 C20  LIG L   1      14.564  53.482  14.714  1.00  0.00     0.013 A 
ATOM     29 C21  LIG L   1      17.090  54.329  13.550  1.00  0.00     0.002 A 
ATOM     30 C22  LIG L   1      14.606  54.598  13.850  1.00  0.00     0.002 A 
ATOM     31 C23  LIG L   1      15.853  55.048  13.254  1.00  0.00    -0.064 A 
BRANCH   31   32
ATOM     32 C24  LIG L   1      15.804  56.289  12.342  1.00  0.00    -0.043 C 
BRANCH   32   33
ATOM     33  N6  LIG L   1      14.902  57.405  12.753  1.00  0.00     0.380 N 
ATOM     34 C25  LIG L   1      15.695  58.665  12.998  1.00  0.00    -0.097 C 
ATOM     35 C26  LIG L   1      13.803  57.667  11.719  1.00  0.00    -0.097 C 
ATOM     36  H3  LIG L   1      14.449  57.120  13.622  1.00  0.00    -0.082 HD
ATOM     37 C27  LIG L   1      14.776  59.835  13.448  1.00  0.00    -0.098 C 
ATOM     38 C28  LIG L   1      12.855  58.823  12.177  1.00  0.00    -0.098 C 
ATOM     39  N7  LIG L   1      13.680  60.088  12.423  1.00  0.00     0.375 N 
ATOM     40 C29  LIG L   1      12.784  61.192  12.797  1.00  0.00    -0.096 C 
ATOM     41  H4  LIG L   1      14.159  60.359  11.564  1.00  0.00    -0.082 HD
ENDBRANCH   32   33
ENDBRANCH   31   32
ENDBRANCH   23   26
ENDBRANCH    5   22
TORSDOF 7
ENDMDL
MODEL 5
REMARK VINA RESULT:   -10.319      2.538     12.640
REMARK ITER + INTRA:          -15.424
REMARK INTER:                 -14.646
REMARK INTRA:                  -0.778
REMARK UNBOUND:                -0.883
REMARK Flexibility Score: inf
REMARK Active torsions [ 7 ] -> [ 7 ]
ROOT
ATOM      1  C1  LIG L   1      15.386  48.029  18.408  1.00  0.00     0.038 A 
ATOM      2  C2  LIG L   1      14.072  47.853  19.039  1.00  0.00    -0.029 A 
ATOM      3  C3  LIG L   1      13.067  48.849  18.803  1.00  0.00     0.007 A 
ATOM      4  C4  LIG L   1      13.345  49.990  17.966  1.00  0.00     0.024 A 
ATOM      5  C5  LIG L   1      14.619  50.162  17.348  1.00  0.00     0.035 A 
ATOM      6  C6  LIG L   1      15.642  49.156  17.586  1.00  0.00     0.047 A 
ATOM      7  C7  LIG L   1      13.716  46.647  19.941  1.00  0.00     0.045 C 
ENDROOT
BRANCH    1    8
ATOM      8  N1  LIG L   1      16.405  47.094  18.603  1.00  0.00    -0.283 N 
ATOM      9  H1  LIG L   1      16.406  46.259  18.079  1.00  0.00     0.155 HD
BRANCH    8   10
ATOM     10  C8  LIG L   1      17.414  47.327  19.524  1.00  0.00     0.220 A 
ATOM     11  C9  LIG L   1      19.681  47.951  19.904  1.00  0.00     0.077 A 
ATOM     12 C10  LIG L   1      19.510  47.800  21.321  1.00  0.00     0.048 A 
ATOM     13  N2  LIG L   1      18.621  47.710  19.059  1.00  0.00    -0.214 NA
ATOM     14 C11  LIG L   1      18.236  47.400  21.781  1.00  0.00     0.116 A 
ATOM     15  N3  LIG L   1      17.216  47.170  20.884  1.00  0.00    -0.223 NA
BRANCH   11   16
ATOM     16 C12  LIG L   1      20.969  48.365  19.264  1.00  0.00     0.019 A 
ATOM     17 C13  LIG L   1      23.246  47.869  18.296  1.00  0.00     0.020 A 
ATOM     18 C14  LIG L   1      22.020  47.418  18.914  1.00  0.00     0.013 A 
ATOM     19 C15  LIG L   1      23.401  49.277  18.038  1.00  0.00     0.111 A 
ATOM     20  N4  LIG L   1      22.382  50.179  18.377  1.00  0.00    -0.263 NA
ATOM     21 C16  LIG L   1      21.191  49.773  18.972  1.00  0.00     0.120 A 
ENDBRANCH   11   16
ENDBRANCH    8   10
ENDBRANCH    1    8
BRANCH    5   22
ATOM     22  N5  LIG L   1      14.818  51.323  16.517  1.00  0.00    -0.281 N 
ATOM     23 C17  LIG L   1      15.897  51.607  15.696  1.00  0.00     0.248 C 
ATOM     24  H2  LIG L   1      14.100  51.996  16.536  1.00  0.00     0.155 HD
ATOM     25  O1  LIG L   1      16.959  51.002  15.715  1.00  0.00    -0.270 OA
BRANCH   23   26
ATOM     26 C18  LIG L   1      15.786  52.736  14.722  1.00  0.00     0.037 A 
ATOM     27 C19  LIG L   1      16.748  52.893  13.628  1.00  0.00     0.013 A 
ATOM     28 C20  LIG L   1      14.711  53.692  14.878  1.00  0.00     0.013 A 
ATOM     29 C21  LIG L   1      16.628  54.000  12.713  1.00  0.00     0.002 A 
ATOM     30 C22  LIG L   1      14.596  54.776  13.979  1.00  0.00     0.002 A 
ATOM     31 C23  LIG L   1      15.539  54.959  12.888  1.00  0.00    -0.064 A 
BRANCH   31   32
ATOM     32 C24  LIG L   1      15.347  56.182  11.972  1.00  0.00    -0.043 C 
BRANCH   32   33
ATOM     33  N6  LIG L   1      14.639  57.364  12.549  1.00  0.00     0.380 N 
ATOM     34 C25  LIG L   1      15.583  58.533  12.686  1.00  0.00    -0.097 C 
ATOM     35 C26  LIG L   1      13.419  57.766  11.715  1.00  0.00    -0.097 C 
ATOM     36  H3  LIG L   1      14.306  57.092  13.474  1.00  0.00    -0.082 HD
ATOM     37 C27  LIG L   1      14.870  59.768  13.304  1.00  0.00    -0.098 C 
ATOM     38 C28  LIG L   1      12.677  58.990  12.345  1.00  0.00    -0.098 C 
ATOM     39  N7  LIG L   1      13.653  60.160  12.478  1.00  0.00     0.375 N 
ATOM     40 C29  LIG L   1      12.944  61.331  13.016  1.00  0.00    -0.096 C 
ATOM     41  H4  LIG L   1      14.012  60.415  11.558  1.00  0.00    -0.082 HD
ENDBRANCH   32   33
ENDBRANCH   31   32
ENDBRANCH   23   26
ENDBRANCH    5   22
TORSDOF 7
ENDMDL
