MODEL 1
REMARK VINA RESULT:   -14.618      0.000      0.000
REMARK ITER + INTRA:          -17.897
REMARK INTER:                 -16.707
REMARK INTRA:                  -1.191
REMARK CONF_INDEPENDENT:        2.088
REMARK UNBOUND:                 1.191
REMARK Flexibility Score: inf
REMARK Active torsions [ 7 ] -> [ 7 ]
ROOT
ATOM      1  C1  LIG L   1      16.012  54.721  12.227  1.00  0.00     0.038 A 
ATOM      2  C2  LIG L   1      17.154  54.510  11.329  1.00  0.00    -0.029 A 
ATOM      3  C3  LIG L   1      18.090  53.472  11.655  1.00  0.00     0.007 A 
ATOM      4  C4  LIG L   1      17.906  52.660  12.832  1.00  0.00     0.024 A 
ATOM      5  C5  LIG L   1      16.796  52.860  13.704  1.00  0.00     0.035 A 
ATOM      6  C6  LIG L   1      15.846  53.912  13.380  1.00  0.00     0.047 A 
ATOM      7  C7  LIG L   1      17.397  55.345  10.051  1.00  0.00     0.045 C 
ENDROOT
BRANCH    1    8
ATOM      8  N1  LIG L   1      15.069  55.717  11.964  1.00  0.00    -0.283 N 
ATOM      9  H1  LIG L   1      14.281  55.508  11.411  1.00  0.00     0.155 HD
BRANCH    8   10
ATOM     10  C8  LIG L   1      15.230  56.997  12.472  1.00  0.00     0.220 A 
ATOM     11  C9  LIG L   1      14.296  59.166  12.782  1.00  0.00     0.077 A 
ATOM     12 C10  LIG L   1      15.484  59.607  13.455  1.00  0.00     0.048 A 
ATOM     13  N2  LIG L   1      14.215  57.873  12.317  1.00  0.00    -0.214 NA
ATOM     14 C11  LIG L   1      16.531  58.670  13.605  1.00  0.00     0.116 A 
ATOM     15  N3  LIG L   1      16.389  57.390  13.114  1.00  0.00    -0.223 NA
BRANCH   11   16
ATOM     16 C12  LIG L   1      13.104  60.041  12.544  1.00  0.00     0.019 A 
ATOM     17 C13  LIG L   1      11.763  62.144  12.920  1.00  0.00     0.020 A 
ATOM     18 C14  LIG L   1      12.933  61.338  13.185  1.00  0.00     0.013 A 
ATOM     19 C15  LIG L   1      10.774  61.631  12.009  1.00  0.00     0.111 A 
ATOM     20  N4  LIG L   1      10.950  60.382  11.396  1.00  0.00    -0.263 NA
ATOM     21 C16  LIG L   1      12.067  59.585  11.631  1.00  0.00     0.120 A 
ENDBRANCH   11   16
ENDBRANCH    8   10
ENDBRANCH    1    8
BRANCH    5   22
ATOM     22  N5  LIG L   1      16.676  52.002  14.857  1.00  0.00    -0.281 N 
ATOM     23 C17  LIG L   1      15.668  51.989  15.807  1.00  0.00     0.248 C 
ATOM     24  H2  LIG L   1      17.399  51.346  14.984  1.00  0.00     0.155 HD
ATOM     25  O1  LIG L   1      14.821  52.862  15.928  1.00  0.00    -0.270 OA
BRANCH   23   26
ATOM     26 C18  LIG L   1      15.599  50.849  16.771  1.00  0.00     0.037 A 
ATOM     27 C19  LIG L   1      14.389  50.590  17.556  1.00  0.00     0.013 A 
ATOM     28 C20  LIG L   1      16.758  49.997  16.933  1.00  0.00     0.013 A 
ATOM     29 C21  LIG L   1      14.355  49.494  18.492  1.00  0.00     0.002 A 
ATOM     30 C22  LIG L   1      16.720  48.923  17.850  1.00  0.00     0.002 A 
ATOM     31 C23  LIG L   1      15.536  48.647  18.646  1.00  0.00    -0.064 A 
BRANCH   31   32
ATOM     32 C24  LIG L   1      15.596  47.468  19.635  1.00  0.00    -0.043 C 
BRANCH   32   33
ATOM     33  N6  LIG L   1      16.883  47.250  20.360  1.00  0.00     0.380 N 
ATOM     34 C25  LIG L   1      17.152  48.384  21.318  1.00  0.00    -0.097 C 
ATOM     35 C26  LIG L   1      16.902  45.913  21.108  1.00  0.00    -0.097 C 
ATOM     36  H3  LIG L   1      17.623  47.222  19.658  1.00  0.00    -0.082 HD
ATOM     37 C27  LIG L   1      18.499  48.185  22.069  1.00  0.00    -0.098 C 
ATOM     38 C28  LIG L   1      18.264  45.690  21.842  1.00  0.00    -0.098 C 
ATOM     39  N7  LIG L   1      18.518  46.853  22.804  1.00  0.00     0.375 N 
ATOM     40 C29  LIG L   1      19.770  46.617  23.538  1.00  0.00    -0.096 C 
ATOM     41  H4  LIG L   1      17.765  46.903  23.489  1.00  0.00    -0.082 HD
ENDBRANCH   32   33
ENDBRANCH   31   32
ENDBRANCH   23   26
ENDBRANCH    5   22
TORSDOF 7
ENDMDL
MODEL 2
REMARK VINA RESULT:   -13.135      1.051      1.529
REMARK ITER + INTRA:          -16.477
REMARK INTER:                 -15.223
REMARK INTRA:                  -1.254
REMARK CONF_INDEPENDENT:        2.088
REMARK UNBOUND:                 1.254
REMARK Flexibility Score: inf
REMARK Active torsions [ 7 ] -> [ 7 ]
ROOT
ATOM      1  C1  LIG L   1      16.249  55.763  12.825  1.00  0.00     0.038 A 
ATOM      2  C2  LIG L   1      16.914  55.413  11.565  1.00  0.00    -0.029 A 
ATOM      3  C3  LIG L   1      17.465  54.094  11.432  1.00  0.00     0.007 A 
ATOM      4  C4  LIG L   1      17.361  53.143  12.511  1.00  0.00     0.024 A 
ATOM      5  C5  LIG L   1      16.713  53.478  13.735  1.00  0.00     0.035 A 
ATOM      6  C6  LIG L   1      16.155  54.814  13.876  1.00  0.00     0.047 A 
ATOM      7  C7  LIG L   1      17.048  56.390  10.374  1.00  0.00     0.045 C 
ENDROOT
BRANCH    1    8
ATOM      8  N1  LIG L   1      15.696  57.031  13.015  1.00  0.00    -0.283 N 
ATOM      9  H1  LIG L   1      16.228  57.733  13.456  1.00  0.00     0.155 HD
BRANCH    8   10
ATOM     10  C8  LIG L   1      14.407  57.313  12.589  1.00  0.00     0.220 A 
ATOM     11  C9  LIG L   1      12.738  58.967  12.197  1.00  0.00     0.077 A 
ATOM     12 C10  LIG L   1      11.811  57.963  11.761  1.00  0.00     0.048 A 
ATOM     13  N2  LIG L   1      14.005  58.601  12.594  1.00  0.00    -0.214 NA
ATOM     14 C11  LIG L   1      12.258  56.623  11.764  1.00  0.00     0.116 A 
ATOM     15  N3  LIG L   1      13.538  56.321  12.176  1.00  0.00    -0.223 NA
BRANCH   11   16
ATOM     16 C12  LIG L   1      12.413  60.428  12.253  1.00  0.00     0.019 A 
ATOM     17 C13  LIG L   1      12.978  62.825  12.802  1.00  0.00     0.020 A 
ATOM     18 C14  LIG L   1      13.341  61.426  12.771  1.00  0.00     0.013 A 
ATOM     19 C15  LIG L   1      11.679  63.204  12.312  1.00  0.00     0.111 A 
ATOM     20  N4  LIG L   1      10.796  62.234  11.815  1.00  0.00    -0.263 NA
ATOM     21 C16  LIG L   1      11.118  60.881  11.771  1.00  0.00     0.120 A 
ENDBRANCH   11   16
ENDBRANCH    8   10
ENDBRANCH    1    8
BRANCH    5   22
ATOM     22  N5  LIG L   1      16.641  52.470  14.763  1.00  0.00    -0.281 N 
ATOM     23 C17  LIG L   1      15.606  52.234  15.654  1.00  0.00     0.248 C 
ATOM     24  H2  LIG L   1      17.424  51.878  14.843  1.00  0.00     0.155 HD
ATOM     25  O1  LIG L   1      14.669  52.996  15.842  1.00  0.00    -0.270 OA
BRANCH   23   26
ATOM     26 C18  LIG L   1      15.622  50.978  16.463  1.00  0.00     0.037 A 
ATOM     27 C19  LIG L   1      14.477  50.593  17.292  1.00  0.00     0.013 A 
ATOM     28 C20  LIG L   1      16.801  50.137  16.429  1.00  0.00     0.013 A 
ATOM     29 C21  LIG L   1      14.526  49.384  18.076  1.00  0.00     0.002 A 
ATOM     30 C22  LIG L   1      16.844  48.953  17.198  1.00  0.00     0.002 A 
ATOM     31 C23  LIG L   1      15.724  48.550  18.033  1.00  0.00    -0.064 A 
BRANCH   31   32
ATOM     32 C24  LIG L   1      15.872  47.255  18.853  1.00  0.00    -0.043 C 
BRANCH   32   33
ATOM     33  N6  LIG L   1      17.002  47.187  19.827  1.00  0.00     0.380 N 
ATOM     34 C25  LIG L   1      17.031  48.423  20.692  1.00  0.00    -0.097 C 
ATOM     35 C26  LIG L   1      16.930  45.933  20.703  1.00  0.00    -0.097 C 
ATOM     36  H3  LIG L   1      17.864  47.137  19.284  1.00  0.00    -0.082 HD
ATOM     37 C27  LIG L   1      18.213  48.382  21.701  1.00  0.00    -0.098 C 
ATOM     38 C28  LIG L   1      18.132  45.867  21.701  1.00  0.00    -0.098 C 
ATOM     39  N7  LIG L   1      18.145  47.130  22.564  1.00  0.00     0.375 N 
ATOM     40 C29  LIG L   1      19.239  47.045  23.542  1.00  0.00    -0.096 C 
ATOM     41  H4  LIG L   1      17.271  47.199  23.085  1.00  0.00    -0.082 HD
ENDBRANCH   32   33
ENDBRANCH   31   32
ENDBRANCH   23   26
ENDBRANCH    5   22
TORSDOF 7
ENDMDL
MODEL 3
REMARK VINA RESULT:   -12.258      1.442      2.158
REMARK ITER + INTRA:          -15.685
REMARK INTER:                 -14.346
REMARK INTRA:                  -1.338
REMARK CONF_INDEPENDENT:        2.088
REMARK UNBOUND:                 1.338
REMARK Flexibility Score: inf
REMARK Active torsions [ 7 ] -> [ 7 ]
ROOT
ATOM      1  C1  LIG L   1      17.421  55.486  13.647  1.00  0.00     0.038 A 
ATOM      2  C2  LIG L   1      17.378  55.104  12.231  1.00  0.00    -0.029 A 
ATOM      3  C3  LIG L   1      17.102  53.734  11.907  1.00  0.00     0.007 A 
ATOM      4  C4  LIG L   1      16.872  52.764  12.948  1.00  0.00     0.024 A 
ATOM      5  C5  LIG L   1      16.910  53.132  14.324  1.00  0.00     0.035 A 
ATOM      6  C6  LIG L   1      17.191  54.519  14.659  1.00  0.00     0.047 A 
ATOM      7  C7  LIG L   1      17.610  56.103  11.073  1.00  0.00     0.045 C 
ENDROOT
BRANCH    1    8
ATOM      8  N1  LIG L   1      17.687  56.804  14.026  1.00  0.00    -0.283 N 
ATOM      9  H1  LIG L   1      18.426  56.992  14.649  1.00  0.00     0.155 HD
BRANCH    8   10
ATOM     10  C8  LIG L   1      16.922  57.851  13.534  1.00  0.00     0.220 A 
ATOM     11  C9  LIG L   1      14.839  58.560  12.622  1.00  0.00     0.077 A 
ATOM     12 C10  LIG L   1      15.319  59.907  12.511  1.00  0.00     0.048 A 
ATOM     13  N2  LIG L   1      15.662  57.582  13.133  1.00  0.00    -0.214 NA
ATOM     14 C11  LIG L   1      16.641  60.162  12.939  1.00  0.00     0.116 A 
ATOM     15  N3  LIG L   1      17.417  59.139  13.438  1.00  0.00    -0.223 NA
BRANCH   11   16
ATOM     16 C12  LIG L   1      13.465  58.132  12.209  1.00  0.00     0.019 A 
ATOM     17 C13  LIG L   1      11.706  56.377  11.773  1.00  0.00     0.020 A 
ATOM     18 C14  LIG L   1      13.045  56.737  12.180  1.00  0.00     0.013 A 
ATOM     19 C15  LIG L   1      10.801  57.431  11.396  1.00  0.00     0.111 A 
ATOM     20  N4  LIG L   1      11.216  58.771  11.429  1.00  0.00    -0.263 NA
ATOM     21 C16  LIG L   1      12.498  59.147  11.818  1.00  0.00     0.120 A 
ENDBRANCH   11   16
ENDBRANCH    8   10
ENDBRANCH    1    8
BRANCH    5   22
ATOM     22  N5  LIG L   1      16.661  52.108  15.308  1.00  0.00    -0.281 N 
ATOM     23 C17  LIG L   1      15.511  51.905  16.054  1.00  0.00     0.248 C 
ATOM     24  H2  LIG L   1      17.399  51.476  15.470  1.00  0.00     0.155 HD
ATOM     25  O1  LIG L   1      14.593  52.707  16.141  1.00  0.00    -0.270 OA
BRANCH   23   26
ATOM     26 C18  LIG L   1      15.365  50.632  16.824  1.00  0.00     0.037 A 
ATOM     27 C19  LIG L   1      16.287  49.511  16.621  1.00  0.00     0.013 A 
ATOM     28 C20  LIG L   1      14.284  50.510  17.778  1.00  0.00     0.013 A 
ATOM     29 C21  LIG L   1      16.114  48.289  17.365  1.00  0.00     0.002 A 
ATOM     30 C22  LIG L   1      14.118  49.311  18.506  1.00  0.00     0.002 A 
ATOM     31 C23  LIG L   1      15.014  48.182  18.321  1.00  0.00    -0.064 A 
BRANCH   31   32
ATOM     32 C24  LIG L   1      14.741  46.908  19.143  1.00  0.00    -0.043 C 
BRANCH   32   33
ATOM     33  N6  LIG L   1      15.911  46.256  19.802  1.00  0.00     0.380 N 
ATOM     34 C25  LIG L   1      16.951  47.284  20.175  1.00  0.00    -0.097 C 
ATOM     35 C26  LIG L   1      15.500  45.451  21.038  1.00  0.00    -0.097 C 
ATOM     36  H3  LIG L   1      16.311  45.604  19.127  1.00  0.00    -0.082 HD
ATOM     37 C27  LIG L   1      18.188  46.622  20.845  1.00  0.00    -0.098 C 
ATOM     38 C28  LIG L   1      16.733  44.757  21.702  1.00  0.00    -0.098 C 
ATOM     39  N7  LIG L   1      17.775  45.816  22.067  1.00  0.00     0.375 N 
ATOM     40 C29  LIG L   1      18.911  45.173  22.745  1.00  0.00    -0.096 C 
ATOM     41  H4  LIG L   1      17.369  46.487  22.719  1.00  0.00    -0.082 HD
ENDBRANCH   32   33
ENDBRANCH   31   32
ENDBRANCH   23   26
ENDBRANCH    5   22
TORSDOF 7
ENDMDL
MODEL 4
REMARK VINA RESULT:   -11.911      3.646     11.505
REMARK ITER + INTRA:          -15.196
REMARK INTER:                 -13.999
REMARK INTRA:                  -1.197
REMARK CONF_INDEPENDENT:        2.088
REMARK UNBOUND:                 1.197
REMARK Flexibility Score: inf
REMARK Active torsions [ 7 ] -> [ 7 ]
ROOT
ATOM      1  C1  LIG L   1      16.078  48.953  16.907  1.00  0.00     0.038 A 
ATOM      2  C2  LIG L   1      17.166  48.707  17.861  1.00  0.00    -0.029 A 
ATOM      3  C3  LIG L   1      18.161  49.727  18.032  1.00  0.00     0.007 A 
ATOM      4  C4  LIG L   1      18.088  50.959  17.285  1.00  0.00     0.024 A 
ATOM      5  C5  LIG L   1      17.031  51.202  16.361  1.00  0.00     0.035 A 
ATOM      6  C6  LIG L   1      16.020  50.171  16.182  1.00  0.00     0.047 A 
ATOM      7  C7  LIG L   1      17.292  47.409  18.693  1.00  0.00     0.045 C 
ENDROOT
BRANCH    1    8
ATOM      8  N1  LIG L   1      15.081  47.998  16.696  1.00  0.00    -0.283 N 
ATOM      9  H1  LIG L   1      15.309  47.040  16.737  1.00  0.00     0.155 HD
BRANCH    8   10
ATOM     10  C8  LIG L   1      13.776  48.382  16.430  1.00  0.00     0.220 A 
ATOM     11  C9  LIG L   1      11.877  48.189  15.005  1.00  0.00     0.077 A 
ATOM     12 C10  LIG L   1      11.146  49.122  15.813  1.00  0.00     0.048 A 
ATOM     13  N2  LIG L   1      13.168  47.853  15.348  1.00  0.00    -0.214 NA
ATOM     14 C11  LIG L   1      11.806  49.659  16.941  1.00  0.00     0.116 A 
ATOM     15  N3  LIG L   1      13.100  49.285  17.229  1.00  0.00    -0.223 NA
BRANCH   11   16
ATOM     16 C12  LIG L   1      11.318  47.537  13.779  1.00  0.00     0.019 A 
ATOM     17 C13  LIG L   1       9.407  46.637  12.398  1.00  0.00     0.020 A 
ATOM     18 C14  LIG L   1       9.896  47.269  13.602  1.00  0.00     0.013 A 
ATOM     19 C15  LIG L   1      10.360  46.278  11.382  1.00  0.00     0.111 A 
ATOM     20  N4  LIG L   1      11.726  46.542  11.562  1.00  0.00    -0.263 NA
ATOM     21 C16  LIG L   1      12.226  47.150  12.709  1.00  0.00     0.120 A 
ENDBRANCH   11   16
ENDBRANCH    8   10
ENDBRANCH    1    8
BRANCH    5   22
ATOM     22  N5  LIG L   1      17.019  52.461  15.658  1.00  0.00    -0.281 N 
ATOM     23 C17  LIG L   1      16.386  52.764  14.464  1.00  0.00     0.248 C 
ATOM     24  H2  LIG L   1      17.524  53.195  16.079  1.00  0.00     0.155 HD
ATOM     25  O1  LIG L   1      15.907  51.935  13.706  1.00  0.00    -0.270 OA
BRANCH   23   26
ATOM     26 C18  LIG L   1      16.284  54.195  14.045  1.00  0.00     0.037 A 
ATOM     27 C19  LIG L   1      17.418  55.112  14.185  1.00  0.00     0.013 A 
ATOM     28 C20  LIG L   1      15.032  54.678  13.502  1.00  0.00     0.013 A 
ATOM     29 C21  LIG L   1      17.287  56.491  13.788  1.00  0.00     0.002 A 
ATOM     30 C22  LIG L   1      14.907  56.031  13.113  1.00  0.00     0.002 A 
ATOM     31 C23  LIG L   1      16.015  56.962  13.246  1.00  0.00    -0.064 A 
BRANCH   31   32
ATOM     32 C24  LIG L   1      15.778  58.423  12.817  1.00  0.00    -0.043 C 
BRANCH   32   33
ATOM     33  N6  LIG L   1      14.397  58.968  12.979  1.00  0.00     0.380 N 
ATOM     34 C25  LIG L   1      14.441  60.454  13.237  1.00  0.00    -0.097 C 
ATOM     35 C26  LIG L   1      13.515  58.670  11.764  1.00  0.00    -0.097 C 
ATOM     36  H3  LIG L   1      13.983  58.500  13.785  1.00  0.00    -0.082 HD
ATOM     37 C27  LIG L   1      13.014  61.038  13.430  1.00  0.00    -0.098 C 
ATOM     38 C28  LIG L   1      12.068  59.228  11.961  1.00  0.00    -0.098 C 
ATOM     39  N7  LIG L   1      12.136  60.733  12.224  1.00  0.00     0.375 N 
ATOM     40 C29  LIG L   1      10.773  61.271  12.352  1.00  0.00    -0.096 C 
ATOM     41  H4  LIG L   1      12.578  61.201  11.433  1.00  0.00    -0.082 HD
ENDBRANCH   32   33
ENDBRANCH   31   32
ENDBRANCH   23   26
ENDBRANCH    5   22
TORSDOF 7
ENDMDL
MODEL 5
REMARK VINA RESULT:   -11.887      3.859     11.986
REMARK ITER + INTRA:          -15.212
REMARK INTER:                 -13.975
REMARK INTRA:                  -1.237
REMARK CONF_INDEPENDENT:        2.088
REMARK UNBOUND:                 1.237
REMARK Flexibility Score: inf
REMARK Active torsions [ 7 ] -> [ 7 ]
ROOT
ATOM      1  C1  LIG L   1      18.286  49.203  18.447  1.00  0.00     0.038 A 
ATOM      2  C2  LIG L   1      17.299  48.117  18.505  1.00  0.00    -0.029 A 
ATOM      3  C3  LIG L   1      16.198  48.151  17.586  1.00  0.00     0.007 A 
ATOM      4  C4  LIG L   1      16.071  49.224  16.631  1.00  0.00     0.024 A 
ATOM      5  C5  LIG L   1      17.029  50.278  16.569  1.00  0.00     0.035 A 
ATOM      6  C6  LIG L   1      18.146  50.250  17.500  1.00  0.00     0.047 A 
ATOM      7  C7  LIG L   1      17.389  46.939  19.503  1.00  0.00     0.045 C 
ENDROOT
BRANCH    1    8
ATOM      8  N1  LIG L   1      19.377  49.226  19.317  1.00  0.00    -0.283 N 
ATOM      9  H1  LIG L   1      19.246  49.494  20.256  1.00  0.00     0.155 HD
BRANCH    8   10
ATOM     10  C8  LIG L   1      20.644  48.875  18.875  1.00  0.00     0.220 A 
ATOM     11  C9  LIG L   1      22.683  49.577  17.863  1.00  0.00     0.077 A 
ATOM     12 C10  LIG L   1      23.208  48.244  17.942  1.00  0.00     0.048 A 
ATOM     13  N2  LIG L   1      21.417  49.841  18.337  1.00  0.00    -0.214 NA
ATOM     14 C11  LIG L   1      22.379  47.252  18.511  1.00  0.00     0.116 A 
ATOM     15  N3  LIG L   1      21.119  47.580  18.964  1.00  0.00    -0.223 NA
BRANCH   11   16
ATOM     16 C12  LIG L   1      23.438  50.734  17.285  1.00  0.00     0.019 A 
ATOM     17 C13  LIG L   1      25.094  51.740  15.670  1.00  0.00     0.020 A 
ATOM     18 C14  LIG L   1      24.391  50.591  16.192  1.00  0.00     0.013 A 
ATOM     19 C15  LIG L   1      24.829  53.027  16.258  1.00  0.00     0.111 A 
ATOM     20  N4  LIG L   1      23.907  53.152  17.308  1.00  0.00    -0.263 NA
ATOM     21 C16  LIG L   1      23.215  52.064  17.831  1.00  0.00     0.120 A 
ENDBRANCH   11   16
ENDBRANCH    8   10
ENDBRANCH    1    8
BRANCH    5   22
ATOM     22  N5  LIG L   1      16.839  51.310  15.580  1.00  0.00    -0.281 N 
ATOM     23 C17  LIG L   1      15.823  52.250  15.515  1.00  0.00     0.248 C 
ATOM     24  H2  LIG L   1      17.514  51.353  14.865  1.00  0.00     0.155 HD
ATOM     25  O1  LIG L   1      14.799  52.208  16.181  1.00  0.00    -0.270 OA
BRANCH   23   26
ATOM     26 C18  LIG L   1      15.956  53.392  14.561  1.00  0.00     0.037 A 
ATOM     27 C19  LIG L   1      15.034  53.553  13.434  1.00  0.00     0.013 A 
ATOM     28 C20  LIG L   1      17.027  54.346  14.756  1.00  0.00     0.013 A 
ATOM     29 C21  LIG L   1      15.195  54.655  12.518  1.00  0.00     0.002 A 
ATOM     30 C22  LIG L   1      17.182  55.426  13.857  1.00  0.00     0.002 A 
ATOM     31 C23  LIG L   1      16.284  55.606  12.728  1.00  0.00    -0.064 A 
BRANCH   31   32
ATOM     32 C24  LIG L   1      16.545  56.799  11.790  1.00  0.00    -0.043 C 
BRANCH   32   33
ATOM     33  N6  LIG L   1      15.664  57.995  11.943  1.00  0.00     0.380 N 
ATOM     34 C25  LIG L   1      14.227  57.575  12.132  1.00  0.00    -0.097 C 
ATOM     35 C26  LIG L   1      16.107  58.890  13.104  1.00  0.00    -0.097 C 
ATOM     36  H3  LIG L   1      15.744  58.540  11.084  1.00  0.00    -0.082 HD
ATOM     37 C27  LIG L   1      13.289  58.807  12.274  1.00  0.00    -0.098 C 
ATOM     38 C28  LIG L   1      15.188  60.148  13.236  1.00  0.00    -0.098 C 
ATOM     39  N7  LIG L   1      13.738  59.699  13.422  1.00  0.00     0.375 N 
ATOM     40 C29  LIG L   1      12.879  60.878  13.605  1.00  0.00    -0.096 C 
ATOM     41  H4  LIG L   1      13.659  59.129  14.264  1.00  0.00    -0.082 HD
ENDBRANCH   32   33
ENDBRANCH   31   32
ENDBRANCH   23   26
ENDBRANCH    5   22
TORSDOF 7
ENDMDL
