REMARK Flexibility Score: inf
REMARK Active torsions [ 1 ] -> [ 1 ]
ROOT
ATOM      1  N1  LIG L   1      84.773  70.488 -11.317  1.00  0.00     0.382 N 
ATOM      2  C1  LIG L   1      84.348  69.212 -10.639  1.00  0.00    -0.037 C 
ATOM      3  C2  LIG L   1      85.537  68.745  -9.801  1.00  0.00    -0.013 C 
ATOM      4  C3  LIG L   1      86.737  69.434 -10.424  1.00  0.00    -0.020 C 
ATOM      5  C4  LIG L   1      86.233  70.625 -11.235  1.00  0.00    -0.078 C 
ATOM      6  C5  LIG L   1      84.502  70.486 -12.756  1.00  0.00    -0.095 C 
ATOM      7  H1  LIG L   1      84.255  71.231 -10.848  1.00  0.00    -0.081 HD
ATOM      8  *1  LIG L   1      83.239  72.688  -9.929  1.00  0.00     0.000 W 
ENDROOT
BRANCH    2    9
ATOM      9  C6  LIG L   1      83.069  69.256  -9.857  1.00  0.00    -0.043 A 
ATOM     10  N2  LIG L   1      81.726  69.981  -7.943  1.00  0.00    -0.263 NA
ATOM     11  C7  LIG L   1      82.926  69.909  -8.615  1.00  0.00     0.112 A 
ATOM     12  C8  LIG L   1      80.636  69.345  -8.441  1.00  0.00     0.111 A 
ATOM     13  *2  LIG L   1      81.485  71.529  -5.385  1.00  0.00     0.000 W 
ATOM     14  C9  LIG L   1      80.705  68.617  -9.641  1.00  0.00     0.020 A 
ATOM     15 C10  LIG L   1      81.922  68.611 -10.371  1.00  0.00     0.005 A 
ENDBRANCH    2    9
TORSDOF 1
