REMARK  10 active torsions:
REMARK  status: ('A' for Active; 'I' for Inactive)
REMARK    1  A    between atoms: C1_1  and  O38_38 
REMARK    2  A    between atoms: N10_10  and  C15_15 
REMARK    3  A    between atoms: C15_15  and  C16_16 
REMARK    4  A    between atoms: C16_16  and  O17_17 
REMARK    5  A    between atoms: C16_16  and  C18_18 
REMARK    6  A    between atoms: C18_18  and  N19_19 
REMARK    7  A    between atoms: C18_18  and  C31_31 
REMARK       I    between atoms: N19_19  and  C20_20 
REMARK    8  A    between atoms: C20_20  and  O22_22 
REMARK    9  A    between atoms: O22_22  and  C23_23 
REMARK   10  A    between atoms: C31_31  and  C37_37 
ROOT
HETATM    1  C16 GR7 B 201      15.256 -18.831  -5.060  0.65 11.09     0.160 C 
ENDROOT
BRANCH   1   2
HETATM    2  C15 GR7 B 201      16.360 -17.923  -5.612  0.65 12.50     0.169 C 
BRANCH   2   3
HETATM    3  N10 GR7 B 201      17.658 -18.549  -5.507  0.65 15.26    -0.304 N 
HETATM    4  S7  GR7 B 201      18.594 -18.819  -6.782  0.65 15.90     0.261 S 
HETATM    5  C4  GR7 B 201      19.585 -17.416  -7.206  0.65 13.42     0.088 A 
HETATM    6  O8  GR7 B 201      17.634 -18.920  -7.991  0.65 15.29    -0.200 OA
HETATM    7  O9  GR7 B 201      19.490 -19.952  -6.579  0.65 16.57    -0.200 OA
HETATM    8  C3  GR7 B 201      20.900 -17.202  -6.831  0.65 13.99    -0.009 A 
HETATM    9  C5  GR7 B 201      19.003 -16.422  -7.993  0.65 13.26     0.028 A 
HETATM   10  C2  GR7 B 201      21.596 -16.037  -7.232  0.65 14.14     0.047 A 
HETATM   11  C40 GR7 B 201      21.651 -18.089  -6.042  0.65 16.21     0.207 C 
HETATM   12  C1  GR7 B 201      20.995 -15.061  -8.015  0.65 14.73     0.068 A 
HETATM   13  C6  GR7 B 201      19.677 -15.286  -8.386  0.65 13.78     0.038 A 
HETATM   14  O41 GR7 B 201      21.862 -17.322  -4.794  0.65 19.51    -0.387 OA
HETATM   15  C42 GR7 B 201      22.489 -18.000  -3.694  0.65 20.26     0.168 C 
HETATM   16  C43 GR7 B 201      21.531 -18.415  -2.759  0.65 20.30     0.026 C 
HETATM   17  C44 GR7 B 201      20.981 -19.660  -2.662  0.65 20.47     0.002 C 
HETATM   18  C14 GR7 B 201      19.995 -20.158  -1.839  0.65 20.92     0.000 C 
HETATM   19  C13 GR7 B 201      18.574 -20.181  -2.263  0.65 19.92     0.002 C 
HETATM   20  C12 GR7 B 201      18.345 -20.152  -3.751  0.65 18.52     0.021 C 
HETATM   21  C11 GR7 B 201      18.263 -18.708  -4.222  0.65 16.50     0.135 C 
BRANCH  12  22
HETATM   22  O38 GR7 B 201      21.613 -13.918  -8.433  0.65 14.38    -0.356 OA
HETATM   23  C39 GR7 B 201      22.977 -13.865  -8.035  0.65 19.75     0.210 C 
ENDBRANCH  12  22
ENDBRANCH   2   3
ENDBRANCH   1   2
BRANCH   1  24
HETATM   24  O17 GR7 B 201      14.082 -18.049  -4.758  0.65 11.94    -0.392 OA
HETATM   25  H11 GR7 B 201      13.843 -17.521  -5.523  0.65 11.94     0.210 HD
ENDBRANCH   1  24
BRANCH   1  26
HETATM   26  C18 GR7 B 201      14.878 -19.956  -6.016  0.65 11.44     0.121 C 
BRANCH  26  27
HETATM   27  N19 GR7 B 201      13.956 -20.873  -5.330  0.65 12.38    -0.329 N 
HETATM   28  C20 GR7 B 201      14.252 -22.105  -4.935  0.65 12.57     0.361 C 
HETATM   29  O21 GR7 B 201      15.326 -22.751  -5.059  0.65 12.86    -0.238 OA
HETATM   30  H13 GR7 B 201      13.021 -20.538  -5.144  0.65 12.38     0.165 HD
BRANCH  28  31
HETATM   31  O22 GR7 B 201      13.249 -22.706  -4.260  0.65 12.10    -0.296 OA
BRANCH  31  32
HETATM   32  C23 GR7 B 201      13.419 -24.111  -4.022  0.65 12.33     0.166 C 
HETATM   33  C24 GR7 B 201      12.868 -24.359  -2.599  0.65 11.72     0.204 C 
HETATM   34  O25 GR7 B 201      11.442 -24.285  -2.809  0.65 12.04    -0.358 OA
HETATM   35  C26 GR7 B 201      11.117 -24.871  -4.069  0.65 13.46     0.266 C 
HETATM   36  O27 GR7 B 201      10.236 -23.998  -4.776  0.65 12.98    -0.361 OA
HETATM   37  C30 GR7 B 201      12.417 -24.913  -4.853  0.65 12.55     0.075 C 
HETATM   38  C28 GR7 B 201      10.896 -23.403  -5.901  0.65 12.99     0.171 C 
HETATM   39  C29 GR7 B 201      12.024 -24.375  -6.217  0.65 13.37     0.038 C 
ENDBRANCH  31  32
ENDBRANCH  28  31
ENDBRANCH  26  27
BRANCH  26  40
HETATM   40  C31 GR7 B 201      14.178 -19.436  -7.281  0.65 12.46     0.066 C 
BRANCH  40  41
HETATM   41  C37 GR7 B 201      13.805 -20.604  -8.207  0.65 13.02    -0.056 C 
HETATM   42  C32 GR7 B 201      12.491 -21.046  -8.291  0.65 14.03     0.007 C 
HETATM   43  C33 GR7 B 201      12.128 -22.142  -9.092  0.65 13.26     0.001 C 
HETATM   44  C34 GR7 B 201      13.154 -22.852  -9.701  0.65 13.23     0.000 C 
HETATM   45  C35 GR7 B 201      14.463 -22.402  -9.684  0.65 13.71     0.001 C 
HETATM   46  C36 GR7 B 201      14.827 -21.325  -8.871  0.65 12.94     0.007 C 
ENDBRANCH  40  41
ENDBRANCH  26  40
ENDBRANCH   1  26
TORSDOF 10
