REMARK  10 active torsions:
REMARK  status: ('A' for Active; 'I' for Inactive)
REMARK    1  A    between atoms: C1_1  and  O38_38 
REMARK    2  A    between atoms: N10_10  and  C15_15 
REMARK    3  A    between atoms: C15_15  and  C16_16 
REMARK    4  A    between atoms: C16_16  and  O17_17 
REMARK    5  A    between atoms: C16_16  and  C18_18 
REMARK    6  A    between atoms: C18_18  and  N19_19 
REMARK    7  A    between atoms: C18_18  and  C31_31 
REMARK       I    between atoms: N19_19  and  C20_20 
REMARK    8  A    between atoms: C20_20  and  O22_22 
REMARK    9  A    between atoms: O22_22  and  C23_23 
REMARK   10  A    between atoms: C31_31  and  C37_37 
ROOT
HETATM    1  C16 GR7 B 201      -7.337   2.431  -5.413  0.65 11.09     0.160 C 
ENDROOT
BRANCH   1   2
HETATM    2  C15 GR7 B 201      -8.574   3.288  -5.122  0.65 12.50     0.169 C 
BRANCH   2   3
HETATM    3  N10 GR7 B 201      -9.789   2.603  -5.499  0.65 15.26    -0.304 N 
HETATM    4  S7  GR7 B 201     -11.134   3.383  -5.897  0.65 15.90     0.261 S 
HETATM    5  C4  GR7 B 201     -11.168   3.851  -7.603  0.65 13.42     0.088 A 
HETATM    6  O8  GR7 B 201     -11.049   4.753  -5.183  0.65 15.29    -0.200 OA
HETATM    7  O9  GR7 B 201     -12.330   2.593  -5.629  0.65 16.57    -0.200 OA
HETATM    8  C3  GR7 B 201     -11.784   3.155  -8.629  0.65 13.99    -0.009 A 
HETATM    9  C5  GR7 B 201     -10.517   5.030  -7.968  0.65 13.26     0.028 A 
HETATM   10  C2  GR7 B 201     -11.746   3.628  -9.962  0.65 14.14     0.047 A 
HETATM   11  C40 GR7 B 201     -12.486   1.951  -8.456  0.65 16.21     0.207 C 
HETATM   12  C1  GR7 B 201     -11.092   4.805 -10.300  0.65 14.73     0.068 A 
HETATM   13  C6  GR7 B 201     -10.478   5.495  -9.265  0.65 13.78     0.038 A 
HETATM   14  O41 GR7 B 201     -11.647   0.973  -9.184  0.65 19.51    -0.387 OA
HETATM   15  C42 GR7 B 201     -12.009  -0.414  -9.091  0.65 20.26     0.168 C 
HETATM   16  C43 GR7 B 201     -11.198  -1.074  -8.157  0.65 20.30     0.026 C 
HETATM   17  C44 GR7 B 201     -11.513  -1.341  -6.857  0.65 20.47     0.002 C 
HETATM   18  C14 GR7 B 201     -10.779  -1.914  -5.842  0.65 20.92     0.000 C 
HETATM   19  C13 GR7 B 201      -9.998  -1.086  -4.891  0.65 19.92     0.002 C 
HETATM   20  C12 GR7 B 201     -10.457   0.341  -4.751  0.65 18.52     0.021 C 
HETATM   21  C11 GR7 B 201      -9.751   1.204  -5.785  0.65 16.50     0.135 C 
BRANCH  12  22
HETATM   22  O38 GR7 B 201     -11.020   5.312 -11.565  0.65 14.38    -0.356 OA
HETATM   23  C39 GR7 B 201     -11.430   6.672 -11.626  0.65 19.75     0.210 C 
ENDBRANCH  12  22
ENDBRANCH   2   3
ENDBRANCH   1   2
BRANCH   1  24
HETATM   24  O17 GR7 B 201      -7.085   2.397  -6.833  0.65 11.94    -0.392 OA
HETATM   25  H11 GR7 B 201      -6.238   1.978  -6.998  0.65 11.94     0.210 HD
ENDBRANCH   1  24
BRANCH   1  26
HETATM   26  C18 GR7 B 201      -6.089   2.926  -4.693  0.65 11.44     0.121 C 
BRANCH  26  27
HETATM   27  N19 GR7 B 201      -5.422   1.781  -4.056  0.65 12.38    -0.329 N 
HETATM   28  C20 GR7 B 201      -5.928   1.049  -3.071  0.65 12.57     0.361 C 
HETATM   29  O21 GR7 B 201      -7.030   1.162  -2.472  0.65 12.86    -0.238 OA
HETATM   30  H13 GR7 B 201      -4.504   1.531  -4.395  0.65 12.38     0.165 HD
BRANCH  28  31
HETATM   31  O22 GR7 B 201      -5.143   0.008  -2.720  0.65 12.10    -0.296 OA
BRANCH  31  32
HETATM   32  C23 GR7 B 201      -5.814  -1.253  -2.580  0.65 12.33     0.166 C 
HETATM   33  C24 GR7 B 201      -6.111  -1.725  -4.021  0.65 11.72     0.204 C 
HETATM   34  O25 GR7 B 201      -4.810  -2.154  -4.475  0.65 12.04    -0.358 OA
HETATM   35  C26 GR7 B 201      -4.113  -2.776  -3.396  0.65 13.46     0.266 C 
HETATM   36  O27 GR7 B 201      -2.788  -2.249  -3.331  0.65 12.98    -0.361 OA
HETATM   37  C30 GR7 B 201      -4.826  -2.330  -2.131  0.65 12.55     0.075 C 
HETATM   38  C28 GR7 B 201      -2.620  -1.423  -2.171  0.65 12.99     0.171 C 
HETATM   39  C29 GR7 B 201      -3.690  -1.922  -1.211  0.65 13.37     0.038 C 
ENDBRANCH  31  32
ENDBRANCH  28  31
ENDBRANCH  26  27
BRANCH  26  40
HETATM   40  C31 GR7 B 201      -5.086   3.588  -5.651  0.65 12.46     0.066 C 
BRANCH  40  41
HETATM   41  C37 GR7 B 201      -4.331   4.721  -4.939  0.65 13.02    -0.056 C 
HETATM   42  C32 GR7 B 201      -3.091   5.142  -5.403  0.65 14.03     0.007 C 
HETATM   43  C33 GR7 B 201      -2.355   6.142  -4.745  0.65 13.26     0.001 C 
HETATM   44  C34 GR7 B 201      -2.855   6.609  -3.536  0.65 13.23     0.000 C 
HETATM   45  C35 GR7 B 201      -4.113   6.253  -3.081  0.65 13.71     0.001 C 
HETATM   46  C36 GR7 B 201      -4.835   5.243  -3.723  0.65 12.94     0.007 C 
ENDBRANCH  40  41
ENDBRANCH  26  40
ENDBRANCH   1  26
TORSDOF 10
