REMARK  10 active torsions:
REMARK  status: ('A' for Active; 'I' for Inactive)
REMARK    1  A    between atoms: C1_1  and  O38_38 
REMARK    2  A    between atoms: N10_10  and  C15_15 
REMARK    3  A    between atoms: C15_15  and  C16_16 
REMARK    4  A    between atoms: C16_16  and  O17_17 
REMARK    5  A    between atoms: C16_16  and  C18_18 
REMARK    6  A    between atoms: C18_18  and  N19_19 
REMARK    7  A    between atoms: C18_18  and  C31_31 
REMARK       I    between atoms: N19_19  and  C20_20 
REMARK    8  A    between atoms: C20_20  and  O22_22 
REMARK    9  A    between atoms: O22_22  and  C23_23 
REMARK   10  A    between atoms: C31_31  and  C37_37 
ROOT
HETATM    1  C16 GR7 B 201       4.307   7.276   4.281  0.65 11.09     0.160 C 
ENDROOT
BRANCH   1   2
HETATM    2  C15 GR7 B 201       4.114   6.485   5.579  0.65 12.50     0.169 C 
BRANCH   2   3
HETATM    3  N10 GR7 B 201       2.842   5.799   5.593  0.65 15.26    -0.304 N 
HETATM    4  S7  GR7 B 201       2.454   4.719   6.714  0.65 15.90     0.261 S 
HETATM    5  C4  GR7 B 201       1.782   5.464   8.171  0.65 13.42     0.088 A 
HETATM    6  O8  GR7 B 201       3.797   4.148   7.227  0.65 15.29    -0.200 OA
HETATM    7  O9  GR7 B 201       1.486   3.742   6.227  0.65 16.57    -0.200 OA
HETATM    8  C3  GR7 B 201       0.438   5.612   8.468  0.65 13.99    -0.009 A 
HETATM    9  C5  GR7 B 201       2.676   5.955   9.123  0.65 13.26     0.028 A 
HETATM   10  C2  GR7 B 201       0.016   6.226   9.670  0.65 14.14     0.047 A 
HETATM   11  C40 GR7 B 201      -0.607   5.180   7.634  0.65 16.21     0.207 C 
HETATM   12  C1  GR7 B 201       0.925   6.707  10.602  0.65 14.73     0.068 A 
HETATM   13  C6  GR7 B 201       2.270   6.554  10.296  0.65 13.78     0.038 A 
HETATM   14  O41 GR7 B 201      -1.238   6.451   7.212  0.65 19.51    -0.387 OA
HETATM   15  C42 GR7 B 201      -2.276   6.382   6.222  0.65 20.26     0.168 C 
HETATM   16  C43 GR7 B 201      -1.775   6.719   4.957  0.65 20.30     0.026 C 
HETATM   17  C44 GR7 B 201      -1.375   5.848   3.986  0.65 20.47     0.002 C 
HETATM   18  C14 GR7 B 201      -0.811   6.061   2.748  0.65 20.92     0.000 C 
HETATM   19  C13 GR7 B 201       0.660   6.063   2.560  0.65 19.92     0.002 C 
HETATM   20  C12 GR7 B 201       1.445   5.318   3.608  0.65 18.52     0.021 C 
HETATM   21  C11 GR7 B 201       1.782   6.261   4.753  0.65 16.50     0.135 C 
BRANCH  12  22
HETATM   22  O38 GR7 B 201       0.580   7.309  11.778  0.65 14.38    -0.356 OA
HETATM   23  C39 GR7 B 201      -0.010   8.586  11.578  0.65 19.75     0.210 C 
ENDBRANCH  12  22
ENDBRANCH   2   3
ENDBRANCH   1   2
BRANCH   1  24
HETATM   24  O17 GR7 B 201       3.916   8.650   4.480  0.65 11.94    -0.392 OA
HETATM   25  H11 GR7 B 201       4.445   9.219   3.916  0.65 11.94     0.210 HD
ENDBRANCH   1  24
BRANCH   1  26
HETATM   26  C18 GR7 B 201       5.741   7.232   3.766  0.65 11.44     0.121 C 
BRANCH  26  27
HETATM   27  N19 GR7 B 201       6.443   8.445   4.208  0.65 12.38    -0.329 N 
HETATM   28  C20 GR7 B 201       7.719   8.723   3.972  0.65 12.57     0.361 C 
HETATM   29  O21 GR7 B 201       8.587   8.046   3.360  0.65 12.86    -0.238 OA
HETATM   30  H13 GR7 B 201       5.910   9.123   4.736  0.65 12.38     0.165 HD
BRANCH  28  31
HETATM   31  O22 GR7 B 201       8.094   9.939   4.423  0.65 12.10    -0.296 OA
BRANCH  31  32
HETATM   32  C23 GR7 B 201       7.704  11.050   3.603  0.65 12.33     0.166 C 
HETATM   33  C24 GR7 B 201       6.629  11.807   4.416  0.65 11.72     0.204 C 
HETATM   34  O25 GR7 B 201       7.423  12.471   5.422  0.65 12.04    -0.358 OA
HETATM   35  C26 GR7 B 201       8.656  12.901   4.846  0.65 13.46     0.266 C 
HETATM   36  O27 GR7 B 201       9.730  12.525   5.708  0.65 12.98    -0.361 OA
HETATM   37  C30 GR7 B 201       8.817  12.098   3.567  0.65 12.55     0.075 C 
HETATM   38  C28 GR7 B 201      10.515  11.477   5.124  0.65 12.99     0.171 C 
HETATM   39  C29 GR7 B 201      10.255  11.618   3.630  0.65 13.37     0.038 C 
ENDBRANCH  31  32
ENDBRANCH  28  31
ENDBRANCH  26  27
BRANCH  26  40
HETATM   40  C31 GR7 B 201       6.514   6.015   4.296  0.65 12.46     0.066 C 
BRANCH  40  41
HETATM   41  C37 GR7 B 201       6.063   4.736   3.574  0.65 13.02    -0.056 C 
HETATM   42  C32 GR7 B 201       5.624   4.786   2.257  0.65 14.03     0.007 C 
HETATM   43  C33 GR7 B 201       5.161   3.642   1.586  0.65 13.26     0.001 C 
HETATM   44  C34 GR7 B 201       5.037   2.476   2.330  0.65 13.23     0.000 C 
HETATM   45  C35 GR7 B 201       5.521   2.380   3.623  0.65 13.71     0.001 C 
HETATM   46  C36 GR7 B 201       5.961   3.522   4.297  0.65 12.94     0.007 C 
ENDBRANCH  40  41
ENDBRANCH  26  40
ENDBRANCH   1  26
TORSDOF 10
