REMARK  3 active torsions:
REMARK  status: ('A' for Active; 'I' for Inactive)
REMARK    1  A    between atoms: N1_1  and  C28_18 
REMARK    2  A    between atoms: C6_6  and  N10_10 
REMARK    3  A    between atoms: C9_9  and  C11_11 
ROOT
HETATM    1  N1  PP1 A 302     -21.034 -27.162 -17.721  0.92 16.71    -0.242 N 
HETATM    2  C2  PP1 A 302     -21.897 -25.138 -20.568  0.92 11.71     0.237 A 
HETATM    3  N3  PP1 A 302     -21.540 -25.381 -19.322  0.92 18.59    -0.222 NA
HETATM    4  C4  PP1 A 302     -21.372 -26.649 -18.901  0.92 13.49     0.164 A 
HETATM    5  C5  PP1 A 302     -21.562 -27.716 -19.768  0.92 11.01     0.088 A 
HETATM    6  C6  PP1 A 302     -21.937 -27.406 -21.084  0.92 17.53     0.139 A 
HETATM    7  N7  PP1 A 302     -22.089 -26.127 -21.422  0.92 10.73    -0.224 NA
HETATM    8  N8  PP1 A 302     -20.991 -28.399 -17.743  0.92  8.36    -0.168 NA
HETATM    9  C9  PP1 A 302     -21.272 -28.841 -18.977  0.92 14.10     0.105 A 
ENDROOT
BRANCH   9  10
HETATM   10  C11 PP1 A 302     -21.359 -30.198 -19.317  0.92 24.48    -0.005 A 
HETATM   11  C12 PP1 A 302     -21.550 -30.665 -20.612  0.92 70.57     0.014 A 
HETATM   12  C13 PP1 A 302     -21.622 -32.024 -20.894  0.92 39.13     0.007 A 
HETATM   13  C14 PP1 A 302     -21.494 -32.943 -19.866  0.92 50.02    -0.062 A 
HETATM   14  C15 PP1 A 302     -21.292 -32.497 -18.563  0.92 75.48     0.007 A 
HETATM   15  C24 PP1 A 302     -21.572 -34.439 -20.174  0.92 66.90     0.048 C 
HETATM   16  C16 PP1 A 302     -21.211 -31.133 -18.296  0.92 68.06     0.014 A 
ENDBRANCH   9  10
BRANCH   6  17
HETATM   17  N10 PP1 A 302     -22.159 -28.298 -22.051  0.92 11.99    -0.383 N 
HETATM   18  H03 PP1 A 302     -22.426 -27.986 -22.974  0.92 11.99     0.157 HD
HETATM   19  H12 PP1 A 302     -22.060 -29.285 -21.860  0.92 11.99     0.157 HD
ENDBRANCH   6  17
BRANCH   1  20
HETATM   20  C28 PP1 A 302     -20.723 -26.353 -16.506  0.92 21.24     0.047 C 
HETATM   21  C29 PP1 A 302     -20.337 -27.333 -15.397  0.92 20.66     0.040 C 
HETATM   22  C33 PP1 A 302     -19.534 -25.427 -16.821  0.92 15.35     0.040 C 
HETATM   23  C37 PP1 A 302     -21.956 -25.533 -16.106  0.92  6.00     0.040 C 
ENDBRANCH   1  20
TORSDOF 3
