REMARK  3 active torsions:
REMARK  status: ('A' for Active; 'I' for Inactive)
REMARK    1  A    between atoms: N1_1  and  C28_18 
REMARK    2  A    between atoms: C6_6  and  N10_10 
REMARK    3  A    between atoms: C9_9  and  C11_11 
ROOT
HETATM    1  N1  PP1 A 302       1.249   2.584   1.110  0.92 16.71    -0.242 N 
HETATM    2  C2  PP1 A 302       0.690   0.964  -2.054  0.92 11.71     0.237 A 
HETATM    3  N3  PP1 A 302       1.390   1.380  -1.017  0.92 18.59    -0.222 NA
HETATM    4  C4  PP1 A 302       0.786   2.054  -0.020  0.92 13.49     0.164 A 
HETATM    5  C5  PP1 A 302      -0.576   2.314  -0.061  0.92 11.01     0.088 A 
HETATM    6  C6  PP1 A 302      -1.278   1.847  -1.183  0.92 17.53     0.139 A 
HETATM    7  N7  PP1 A 302      -0.608   1.194  -2.131  0.92 10.73    -0.224 NA
HETATM    8  N8  PP1 A 302       0.357   3.135   1.768  0.92  8.36    -0.168 NA
HETATM    9  C9  PP1 A 302      -0.820   2.996   1.143  0.92 14.10     0.105 A 
ENDROOT
BRANCH   9  10
HETATM   10  C11 PP1 A 302      -2.019   3.558   1.605  0.92 24.48    -0.005 A 
HETATM   11  C12 PP1 A 302      -2.509   4.792   1.195  0.92 70.57     0.014 A 
HETATM   12  C13 PP1 A 302      -3.708   5.298   1.681  0.92 39.13     0.007 A 
HETATM   13  C14 PP1 A 302      -4.443   4.558   2.593  0.92 50.02    -0.062 A 
HETATM   14  C15 PP1 A 302      -3.975   3.315   3.010  0.92 75.48     0.007 A 
HETATM   15  C24 PP1 A 302      -5.764   5.113   3.129  0.92 66.90     0.048 C 
HETATM   16  C16 PP1 A 302      -2.777   2.815   2.506  0.92 68.06     0.014 A 
ENDBRANCH   9  10
BRANCH   6  17
HETATM   17  N10 PP1 A 302      -2.587   2.001  -1.391  0.92 11.99    -0.383 N 
HETATM   18  H03 PP1 A 302      -3.174   2.373  -0.658  0.92 11.99     0.157 HD
HETATM   19  H12 PP1 A 302      -2.990   1.746  -2.281  0.92 11.99     0.157 HD
ENDBRANCH   6  17
BRANCH   1  20
HETATM   20  C28 PP1 A 302       2.672   2.516   1.554  0.92 21.24     0.047 C 
HETATM   21  C29 PP1 A 302       3.516   3.198   0.475  0.92 20.66     0.040 C 
HETATM   22  C33 PP1 A 302       2.811   3.279   2.884  0.92 15.35     0.040 C 
HETATM   23  C37 PP1 A 302       3.086   1.049   1.726  0.92  6.00     0.040 C 
ENDBRANCH   1  20
TORSDOF 3
